WIDTH=16;
DEPTH=65536;

ADDRESS_RADIX=HEX;
DATA_RADIX=HEX;

CONTENT BEGIN
 0 : FFFF;
 0 : FFFF;
 1 : FFFF;
 1 : FFFF;
 2 : FFFF;
 2 : FFFF;
 3 : FFFF;
 3 : FFFF;
 4 : FFFF;
 4 : FFFF;
 5 : FFFF;
 5 : FFFF;
 6 : FFFF;
 6 : FFFF;
 7 : FFFF;
 7 : FFFF;
 8 : FFFF;
 8 : FFFF;
 9 : FFFF;
 9 : FFFF;
 A : FFFF;
 A : FFFF;
 B : FFFF;
 B : FFFF;
 C : FFFF;
 C : FFFF;
 D : FFFF;
 D : FFFF;
 E : FFFF;
 E : FFFF;
 F : FFFF;
 F : FFFF;
 10 : FFFF;
 10 : FFFF;
 11 : FFFF;
 11 : FFFF;
 12 : FFFF;
 12 : FFFF;
 13 : FFFF;
 13 : FFFF;
 14 : FFFF;
 14 : FFFF;
 15 : FFFF;
 15 : FFFF;
 16 : FFFF;
 16 : FFFF;
 17 : FFFF;
 17 : FFFF;
 18 : FFFF;
 18 : FFFF;
 19 : FFFF;
 19 : FFFF;
 1A : FFFF;
 1A : FFFF;
 1B : FFFF;
 1B : FFFF;
 1C : FFFF;
 1C : FFFF;
 1D : FFFF;
 1D : FFFF;
 1E : FFFF;
 1E : FFFF;
 1F : FFFF;
 1F : FFFF;
 20 : FFFF;
 20 : FFFF;
 21 : FFFF;
 21 : FFFF;
 22 : FFFF;
 22 : FFFF;
 23 : FFFF;
 23 : FFFF;
 24 : FFFF;
 24 : FFFF;
 25 : FFFF;
 25 : FFFF;
 26 : FFFF;
 26 : FFFF;
 27 : FFFF;
 27 : FFFF;
 28 : FFFF;
 28 : FFFF;
 29 : FFFF;
 29 : FFFF;
 2A : FFFF;
 2A : FFFF;
 2B : FFFF;
 2B : FFFF;
 2C : FFFF;
 2C : FFFF;
 2D : FFFF;
 2D : FFFF;
 2E : FFFF;
 2E : FFFF;
 2F : FFFE;
 2F : FEFE;
 30 : FEFF;
 30 : FFFF;
 31 : FFFE;
 31 : FEFE;
 32 : FEFD;
 32 : FDFE;
 33 : FEFD;
 33 : FDFE;
 34 : FEFE;
 34 : FEFE;
 35 : FEFD;
 35 : FDFC;
 36 : FCFD;
 36 : FDFE;
 37 : FEFE;
 37 : FEFF;
 38 : FFFF;
 38 : FFFF;
 39 : FFFF;
 39 : FFFF;
 3A : FFFF;
 3A : FFFF;
 3B : FFFF;
 3B : FFFF;
 3C : FFFF;
 3C : FFFF;
 3D : FFFF;
 3D : FFFF;
 3E : FFFF;
 3E : FFFF;
 3F : FFFF;
 3F : FFFF;
 40 : FFFF;
 40 : FFFF;
 41 : FFFF;
 41 : FFFF;
 42 : FFFF;
 42 : FFFF;
 43 : FFFF;
 43 : FFFF;
 44 : FFFF;
 44 : FFFF;
 45 : FFFF;
 45 : FFFF;
 46 : FFFF;
 46 : FFFF;
 47 : FFFF;
 47 : FFFF;
 48 : FFFF;
 48 : FFFF;
 49 : FFFF;
 49 : FFFF;
 4A : FFFF;
 4A : FFFF;
 4B : FFFF;
 4B : FFFF;
 4C : FFFF;
 4C : FFFF;
 4D : FFFF;
 4D : FFFF;
 4E : FFFF;
 4E : FFFF;
 4F : FFFF;
 4F : FFFF;
 50 : FFFF;
 50 : FFFF;
 51 : FFFF;
 51 : FFFF;
 52 : FFFF;
 52 : FFFF;
 53 : FFFF;
 53 : FFFF;
 54 : FFFF;
 54 : FFFF;
 55 : FFFF;
 55 : FFFF;
 56 : FFFF;
 56 : FFFF;
 57 : FFFF;
 57 : FFFF;
 58 : FFFF;
 58 : FFFF;
 59 : FFFF;
 59 : FFFF;
 5A : FFFF;
 5A : FFFF;
 5B : FFFF;
 5B : FFFF;
 5C : FFFF;
 5C : FFFF;
 5D : FFFF;
 5D : FFFF;
 5E : FFFF;
 5E : FFFF;
 5F : FFFF;
 5F : FFFF;
 60 : FFFF;
 60 : FFFF;
 61 : FFFF;
 61 : FFFF;
 62 : FFFF;
 62 : FFFF;
 63 : FFFF;
 63 : FFFF;
 64 : FFFF;
 64 : FFFF;
 65 : FFFF;
 65 : FFFF;
 66 : FFFF;
 66 : FFFF;
 67 : FFFF;
 67 : FFFE;
 68 : FEFE;
 68 : FEFE;
 69 : FEFE;
 69 : FEFE;
 6A : FEFC;
 6A : FCFC;
 6B : FCFC;
 6B : FCFD;
 6C : FDFD;
 6C : FDFE;
 6D : FEFE;
 6D : FEFD;
 6E : FDFD;
 6E : FDFD;
 6F : FDFE;
 6F : FEFF;
 70 : FFFF;
 70 : FFFF;
 71 : FFFF;
 71 : FFFF;
 72 : FFFF;
 72 : FFFF;
 73 : FFFF;
 73 : FFFF;
 74 : FFFF;
 74 : FFFF;
 75 : FFFF;
 75 : FFFF;
 76 : FFFF;
 76 : FFFF;
 77 : FFFF;
 77 : FFFF;
 78 : FFFF;
 78 : FFFF;
 79 : FFFF;
 79 : FFFF;
 7A : FFFF;
 7A : FFFF;
 7B : FFFF;
 7B : FFFF;
 7C : FFFF;
 7C : FFFF;
 7D : FFFF;
 7D : FFFF;
 7E : FFFF;
 7E : FFFF;
 7F : FFFF;
 7F : FFFF;
 80 : FFFF;
 80 : FFFF;
 81 : FFFF;
 81 : FFFF;
 82 : FFFF;
 82 : FFFF;
 83 : FFFF;
 83 : FFFF;
 84 : FFFF;
 84 : FFFF;
 85 : FFFF;
 85 : FFFF;
 86 : FFFF;
 86 : FFFF;
 87 : FFFF;
 87 : FFFF;
 88 : FFFF;
 88 : FFFF;
 89 : FFFF;
 89 : FFFF;
 8A : FFFF;
 8A : FFFF;
 8B : FFFF;
 8B : FFFF;
 8C : FFFF;
 8C : FFFF;
 8D : FFFF;
 8D : FFFF;
 8E : FFFF;
 8E : FFFF;
 8F : FFFF;
 8F : FFFF;
 90 : FFFF;
 90 : FFFF;
 91 : FFFF;
 91 : FFFF;
 92 : FFFF;
 92 : FFFF;
 93 : FFFF;
 93 : FFFF;
 94 : FFFF;
 94 : FFFF;
 95 : FFFF;
 95 : FFFF;
 96 : FFFF;
 96 : FFFF;
 97 : FFFF;
 97 : FFFF;
 98 : FFFF;
 98 : FFFF;
 99 : FFFF;
 99 : FFFF;
 9A : FFFF;
 9A : FFFF;
 9B : FFFF;
 9B : FFFF;
 9C : FFFF;
 9C : FFFF;
 9D : FFFF;
 9D : FFFF;
 9E : FFFF;
 9E : FFFF;
 9F : FFFF;
 9F : FFFF;
 A0 : FFFF;
 A0 : FFFF;
 A1 : FFFF;
 A1 : FFFF;
 A2 : FFFF;
 A2 : FFFF;
 A3 : FFFF;
 A3 : FFFF;
 A4 : FFFF;
 A4 : FFFF;
 A5 : FFFF;
 A5 : FFFF;
 A6 : FFFF;
 A6 : FFFF;
 A7 : FFFF;
 A7 : FFFF;
 A8 : FFFF;
 A8 : FFFF;
 A9 : FFFF;
 A9 : FFFF;
 AA : FFFF;
 AA : FFFF;
 AB : FFFF;
 AB : FFFF;
 AC : FFFF;
 AC : FFFF;
 AD : FFFF;
 AD : FFFF;
 AE : FFFF;
 AE : FFFF;
 AF : FFFF;
 AF : FFFF;
 B0 : FFFF;
 B0 : FFFF;
 B1 : FFFF;
 B1 : FFFF;
 B2 : FFFF;
 B2 : FFFF;
 B3 : FFFF;
 B3 : FFFF;
 B4 : FFFF;
 B4 : FFFF;
 B5 : FFFF;
 B5 : FFFF;
 B6 : FFFF;
 B6 : FFFF;
 B7 : FFFF;
 B7 : FFFF;
 B8 : FFFF;
 B8 : FFFF;
 B9 : FFFF;
 B9 : FFFF;
 BA : FFFF;
 BA : FFFF;
 BB : FFFF;
 BB : FFFF;
 BC : FFFF;
 BC : FFFF;
 BD : FFFF;
 BD : FFFF;
 BE : FFFF;
 BE : FFFF;
 BF : FFFF;
 BF : FFFF;
 C0 : FFFF;
 C0 : FFFF;
 C1 : FFFF;
 C1 : FFFF;
 C2 : FFFF;
 C2 : FFFF;
 C3 : FFFF;
 C3 : FFFF;
 C4 : FFFF;
 C4 : FFFF;
 C5 : FFFF;
 C5 : FFFF;
 C6 : FFFF;
 C6 : FFFF;
 C7 : FFFF;
 C7 : FFFF;
 C8 : FFFF;
 C8 : FFFF;
 C9 : FFFF;
 C9 : FFFF;
 CA : FFFF;
 CA : FFFF;
 CB : FFFF;
 CB : FFFF;
 CC : FFFF;
 CC : FFFF;
 CD : FFFF;
 CD : FFFF;
 CE : FFFF;
 CE : FFFE;
 CF : FEFE;
 CF : FEFF;
 D0 : FFFF;
 D0 : FFFE;
 D1 : FEFE;
 D1 : FEFE;
 D2 : FEFE;
 D2 : FEFE;
 D3 : FEFE;
 D3 : FEFD;
 D4 : FDFE;
 D4 : FEFE;
 D5 : FEFE;
 D5 : FEFD;
 D6 : FDFE;
 D6 : FEFE;
 D7 : FEFF;
 D7 : FFFF;
 D8 : FFFF;
 D8 : FFFF;
 D9 : FFFF;
 D9 : FFFF;
 DA : FFFF;
 DA : FFFF;
 DB : FFFF;
 DB : FFFF;
 DC : FFFF;
 DC : FFFF;
 DD : FFFF;
 DD : FFFF;
 DE : FFFF;
 DE : FFFF;
 DF : FFFF;
 DF : FFFF;
 E0 : FFFF;
 E0 : FFFF;
 E1 : FFFF;
 E1 : FFFF;
 E2 : FFFF;
 E2 : FFFF;
 E3 : FFFF;
 E3 : FFFF;
 E4 : FFFF;
 E4 : FFFF;
 E5 : FFFF;
 E5 : FFFF;
 E6 : FFFF;
 E6 : FFFF;
 E7 : FFFF;
 E7 : FFFF;
 E8 : FFFF;
 E8 : FFFF;
 E9 : FFFF;
 E9 : FFFF;
 EA : FFFF;
 EA : FFFF;
 EB : FFFF;
 EB : FFFF;
 EC : FFFF;
 EC : FFFF;
 ED : FFFF;
 ED : FFFF;
 EE : FFFF;
 EE : FFFF;
 EF : FFFF;
 EF : FFFF;
 F0 : FFFF;
 F0 : FFFF;
 F1 : FFFF;
 F1 : FFFF;
 F2 : FFFF;
 F2 : FFFF;
 F3 : FFFF;
 F3 : FFFF;
 F4 : FFFF;
 F4 : FFFF;
 F5 : FFFF;
 F5 : FFFF;
 F6 : FFFF;
 F6 : FFFF;
 F7 : FFFF;
 F7 : FFFF;
 F8 : FFFF;
 F8 : FFFF;
 F9 : FFFF;
 F9 : FFFF;
 FA : FFFF;
 FA : FFFF;
 FB : FFFF;
 FB : FFFF;
 FC : FFFF;
 FC : FFFF;
 FD : FFFF;
 FD : FFFF;
 FE : FFFF;
 FE : FFFF;
 FF : FFFF;
 FF : FFFF;
 100 : FFFF;
 100 : FFFF;
 101 : FFFF;
 101 : FFFF;
 102 : FFFF;
 102 : FFFF;
 103 : FFFF;
 103 : FFFF;
 104 : FFFF;
 104 : FFFF;
 105 : FFFF;
 105 : FFFF;
 106 : FFFF;
 106 : FFFF;
 107 : FFFF;
 107 : FFFE;
 108 : FEFF;
 108 : FFFE;
 109 : FEFE;
 109 : FEFD;
 10A : FDFC;
 10A : FCFD;
 10B : FDFD;
 10B : FDFD;
 10C : FDFE;
 10C : FEFE;
 10D : FEFE;
 10D : FEFD;
 10E : FDFD;
 10E : FDFE;
 10F : FEFF;
 10F : FFFF;
 110 : FFFF;
 110 : FFFF;
 111 : FFFF;
 111 : FFFF;
 112 : FFFF;
 112 : FFFF;
 113 : FFFF;
 113 : FFFF;
 114 : FFFF;
 114 : FFFF;
 115 : FFFF;
 115 : FFFF;
 116 : FFFF;
 116 : FFFF;
 117 : FFFF;
 117 : FFFF;
 118 : FFFF;
 118 : FFFF;
 119 : FFFF;
 119 : FFFF;
 11A : FFFF;
 11A : FFFF;
 11B : FFFF;
 11B : FFFF;
 11C : FFFF;
 11C : FFFF;
 11D : FFFF;
 11D : FFFF;
 11E : FFFF;
 11E : FFFF;
 11F : FFFF;
 11F : FFFF;
 120 : FFFF;
 120 : FFFF;
 121 : FFFF;
 121 : FFFF;
 122 : FFFF;
 122 : FFFF;
 123 : FFFF;
 123 : FFFF;
 124 : FFFF;
 124 : FFFF;
 125 : FFFF;
 125 : FFFF;
 126 : FFFF;
 126 : FFFF;
 127 : FFFF;
 127 : FFFF;
 128 : FFFF;
 128 : FFFF;
 129 : FFFF;
 129 : FFFF;
 12A : FFFF;
 12A : FFFF;
 12B : FFFF;
 12B : FFFF;
 12C : FFFF;
 12C : FFFF;
 12D : FFFF;
 12D : FFFF;
 12E : FFFF;
 12E : FFFF;
 12F : FFFF;
 12F : FFFF;
 130 : FFFF;
 130 : FFFF;
 131 : FFFF;
 131 : FFFF;
 132 : FFFF;
 132 : FFFF;
 133 : FFFF;
 133 : FFFF;
 134 : FFFF;
 134 : FFFF;
 135 : FFFF;
 135 : FFFF;
 136 : FFFF;
 136 : FFFF;
 137 : FFFF;
 137 : FFFF;
 138 : FFFF;
 138 : FFFF;
 139 : FFFF;
 139 : FFFF;
 13A : FFFF;
 13A : FFFF;
 13B : FFFF;
 13B : FFFF;
 13C : FFFF;
 13C : FFFF;
 13D : FFFF;
 13D : FFFF;
 13E : FFFF;
 13E : FFFF;
 13F : FFFF;
 13F : FFFF;
 140 : FFFF;
 140 : FFFF;
 141 : FFFF;
 141 : FFFF;
 142 : FFFF;
 142 : FFFF;
 143 : FFFF;
 143 : FFFF;
 144 : FFFF;
 144 : FFFF;
 145 : FFFF;
 145 : FFFF;
 146 : FFFF;
 146 : FFFF;
 147 : FFFF;
 147 : FFFF;
 148 : FFFF;
 148 : FFFF;
 149 : FFFF;
 149 : FFFF;
 14A : FFFF;
 14A : FFFF;
 14B : FFFF;
 14B : FFFF;
 14C : FFFF;
 14C : FFFF;
 14D : FFFF;
 14D : FFFF;
 14E : FFFF;
 14E : FFFF;
 14F : FFFF;
 14F : FFFF;
 150 : FFFF;
 150 : FFFF;
 151 : FFFF;
 151 : FFFF;
 152 : FFFF;
 152 : FFFF;
 153 : FFFF;
 153 : FFFF;
 154 : FFFF;
 154 : FFFF;
 155 : FFFF;
 155 : FFFF;
 156 : FFFF;
 156 : FFFF;
 157 : FFFF;
 157 : FFFF;
 158 : FFFF;
 158 : FFFF;
 159 : FFFF;
 159 : FFFF;
 15A : FFFF;
 15A : FFFF;
 15B : FFFF;
 15B : FFFF;
 15C : FFFF;
 15C : FFFF;
 15D : FFFF;
 15D : FFFF;
 15E : FFFF;
 15E : FFFF;
 15F : FFFF;
 15F : FFFF;
 160 : FFFF;
 160 : FFFF;
 161 : FFFF;
 161 : FFFF;
 162 : FFFF;
 162 : FFFF;
 163 : FFFF;
 163 : FFFF;
 164 : FFFF;
 164 : FFFF;
 165 : FFFF;
 165 : FFFF;
 166 : FFFF;
 166 : FFFF;
 167 : FFFF;
 167 : FFFF;
 168 : FFFF;
 168 : FFFF;
 169 : FFFF;
 169 : FFFF;
 16A : FFFF;
 16A : FFFF;
 16B : FFFF;
 16B : FFFF;
 16C : FFFF;
 16C : FFFF;
 16D : FFFF;
 16D : FFFF;
 16E : FFFF;
 16E : FFFF;
 16F : FFFF;
 16F : FFFF;
 170 : FFFE;
 170 : FEFE;
 171 : FEFE;
 171 : FEFE;
 172 : FEFF;
 172 : FFFF;
 173 : FFFF;
 173 : FFFF;
 174 : FFFE;
 174 : FEFF;
 175 : FFFE;
 175 : FEFE;
 176 : FEFF;
 176 : FFFF;
 177 : FFFF;
 177 : FFFF;
 178 : FFFF;
 178 : FFFF;
 179 : FFFF;
 179 : FFFF;
 17A : FFFF;
 17A : FFFF;
 17B : FFFF;
 17B : FFFF;
 17C : FFFF;
 17C : FFFF;
 17D : FFFF;
 17D : FFFF;
 17E : FFFF;
 17E : FFFF;
 17F : FFFF;
 17F : FFFF;
 180 : FFFF;
 180 : FFFF;
 181 : FFFF;
 181 : FFFF;
 182 : FFFF;
 182 : FFFF;
 183 : FFFF;
 183 : FFFF;
 184 : FFFF;
 184 : FFFF;
 185 : FFFF;
 185 : FFFF;
 186 : FFFF;
 186 : FFFF;
 187 : FFFF;
 187 : FFFF;
 188 : FFFF;
 188 : FFFF;
 189 : FFFF;
 189 : FFFF;
 18A : FFFF;
 18A : FFFF;
 18B : FFFF;
 18B : FFFF;
 18C : FFFF;
 18C : FFFF;
 18D : FFFF;
 18D : FFFF;
 18E : FFFF;
 18E : FFFF;
 18F : FFFF;
 18F : FFFF;
 190 : FFFF;
 190 : FFFF;
 191 : FFFF;
 191 : FFFF;
 192 : FFFF;
 192 : FFFF;
 193 : FFFF;
 193 : FFFF;
 194 : FFFF;
 194 : FFFF;
 195 : FFFF;
 195 : FFFF;
 196 : FFFF;
 196 : FFFF;
 197 : FFFF;
 197 : FFFF;
 198 : FFFF;
 198 : FFFF;
 199 : FFFF;
 199 : FFFF;
 19A : FFFF;
 19A : FFFF;
 19B : FFFF;
 19B : FFFF;
 19C : FFFF;
 19C : FFFF;
 19D : FFFF;
 19D : FFFF;
 19E : FFFF;
 19E : FFFF;
 19F : FFFF;
 19F : FFFF;
 1A0 : FFFF;
 1A0 : FFFF;
 1A1 : FFFF;
 1A1 : FFFF;
 1A2 : FFFF;
 1A2 : FFFF;
 1A3 : FFFF;
 1A3 : FFFF;
 1A4 : FFFF;
 1A4 : FFFF;
 1A5 : FFFF;
 1A5 : FFFF;
 1A6 : FFFF;
 1A6 : FFFE;
 1A7 : FEFE;
 1A7 : FEFF;
 1A8 : FFFF;
 1A8 : FFFF;
 1A9 : FFFE;
 1A9 : FEFE;
 1AA : FEFE;
 1AA : FEFE;
 1AB : FEFE;
 1AB : FEFF;
 1AC : FFFE;
 1AC : FEFE;
 1AD : FEFE;
 1AD : FEFE;
 1AE : FEFF;
 1AE : FFFF;
 1AF : FFFF;
 1AF : FFFF;
 1B0 : FFFF;
 1B0 : FFFF;
 1B1 : FFFF;
 1B1 : FFFF;
 1B2 : FFFF;
 1B2 : FFFF;
 1B3 : FFFF;
 1B3 : FFFF;
 1B4 : FFFF;
 1B4 : FFFF;
 1B5 : FFFF;
 1B5 : FFFF;
 1B6 : FFFF;
 1B6 : FFFF;
 1B7 : FFFF;
 1B7 : FFFF;
 1B8 : FFFF;
 1B8 : FFFF;
 1B9 : FFFF;
 1B9 : FFFF;
 1BA : FFFF;
 1BA : FFFF;
 1BB : FFFF;
 1BB : FFFF;
 1BC : FFFF;
 1BC : FFFF;
 1BD : FFFF;
 1BD : FFFF;
 1BE : FFFF;
 1BE : FFFF;
 1BF : FFFF;
 1BF : FFFF;
 1C0 : FFFF;
 1C0 : FFFF;
 1C1 : FFFF;
 1C1 : FFFF;
 1C2 : FFFF;
 1C2 : FFFF;
 1C3 : FFFF;
 1C3 : FFFF;
 1C4 : FFFF;
 1C4 : FFFF;
 1C5 : FFFF;
 1C5 : FFFF;
 1C6 : FFFF;
 1C6 : FFFF;
 1C7 : FFFF;
 1C7 : FFFF;
 1C8 : FFFF;
 1C8 : FFFF;
 1C9 : FFFF;
 1C9 : FFFF;
 1CA : FFFF;
 1CA : FFFF;
 1CB : FFFF;
 1CB : FFFF;
 1CC : FFFF;
 1CC : FFFF;
 1CD : FFFF;
 1CD : FFFF;
 1CE : FFFF;
 1CE : FFFF;
 1CF : FFFF;
 1CF : FFFF;
 1D0 : FFFF;
 1D0 : FFFF;
 1D1 : FFFF;
 1D1 : FFFF;
 1D2 : FFFF;
 1D2 : FFFF;
 1D3 : FFFF;
 1D3 : FFFF;
 1D4 : FFFF;
 1D4 : FFFF;
 1D5 : FFFF;
 1D5 : FFFF;
 1D6 : FFFF;
 1D6 : FFFF;
 1D7 : FFFF;
 1D7 : FFFF;
 1D8 : FFFF;
 1D8 : FFFF;
 1D9 : FFFF;
 1D9 : FFFF;
 1DA : FFFF;
 1DA : FFFF;
 1DB : FFFF;
 1DB : FFFF;
 1DC : FFFF;
 1DC : FFFF;
 1DD : FFFF;
 1DD : FFFF;
 1DE : FFFF;
 1DE : FFFF;
 1DF : FFFF;
 1DF : FFFF;
 1E0 : FFFF;
 1E0 : FFFF;
 1E1 : FFFF;
 1E1 : FFFF;
 1E2 : FFFF;
 1E2 : FFFF;
 1E3 : FFFF;
 1E3 : FFFF;
 1E4 : FFFF;
 1E4 : FFFF;
 1E5 : FFFF;
 1E5 : FFFF;
 1E6 : FFFF;
 1E6 : FFFF;
 1E7 : FFFF;
 1E7 : FFFF;
 1E8 : FFFF;
 1E8 : FFFF;
 1E9 : FFFF;
 1E9 : FFFF;
 1EA : FFFF;
 1EA : FFFF;
 1EB : FFFF;
 1EB : FFFF;
 1EC : FFFF;
 1EC : FFFF;
 1ED : FFFF;
 1ED : FFFF;
 1EE : FFFF;
 1EE : FFFF;
 1EF : FFFF;
 1EF : FFFF;
 1F0 : FFFF;
 1F0 : FFFF;
 1F1 : FFFF;
 1F1 : FFFF;
 1F2 : FFFF;
 1F2 : FFFF;
 1F3 : FFFF;
 1F3 : FFFF;
 1F4 : FFFF;
 1F4 : FFFF;
 1F5 : FFFF;
 1F5 : FFFF;
 1F6 : FFFF;
 1F6 : FFFF;
 1F7 : FFFF;
 1F7 : FFFF;
 1F8 : FFFF;
 1F8 : FFFF;
 1F9 : FFFF;
 1F9 : FFFF;
 1FA : FFFF;
 1FA : FFFF;
 1FB : FFFF;
 1FB : FFFF;
 1FC : FFFF;
 1FC : FFFF;
 1FD : FFFF;
 1FD : FFFF;
 1FE : FFFF;
 1FE : FFFF;
 1FF : FFFF;
 1FF : FFFF;
 200 : FFFF;
 200 : FFFF;
 201 : FFFF;
 201 : FFFF;
 202 : FFFF;
 202 : FFFF;
 203 : FFFF;
 203 : FFFF;
 204 : FFFF;
 204 : FFFF;
 205 : FFFF;
 205 : FFFF;
 206 : FFFF;
 206 : FFFF;
 207 : FFFF;
 207 : FFFF;
 208 : FFFF;
 208 : FFFF;
 209 : FFFF;
 209 : FFFF;
 20A : FFFF;
 20A : FFFF;
 20B : FFFF;
 20B : FFFF;
 20C : FFFF;
 20C : FFFF;
 20D : FFFF;
 20D : FFFF;
 20E : FFFF;
 20E : FFFF;
 20F : FFFF;
 20F : FFFF;
 210 : FFFF;
 210 : FFFF;
 211 : FFFF;
 211 : FFFE;
 212 : FEFE;
 212 : FEFE;
 213 : FEFE;
 213 : FEFE;
 214 : FEFF;
 214 : FFFF;
 215 : FFFF;
 215 : FFFF;
 216 : FFFF;
 216 : FFFF;
 217 : FFFF;
 217 : FFFF;
 218 : FFFF;
 218 : FFFF;
 219 : FFFF;
 219 : FFFF;
 21A : FFFF;
 21A : FFFF;
 21B : FFFF;
 21B : FFFF;
 21C : FFFF;
 21C : FFFF;
 21D : FFFF;
 21D : FFFF;
 21E : FFFF;
 21E : FFFF;
 21F : FFFF;
 21F : FFFF;
 220 : FFFF;
 220 : FFFF;
 221 : FFFF;
 221 : FFFF;
 222 : FFFF;
 222 : FFFF;
 223 : FFFF;
 223 : FFFF;
 224 : FFFF;
 224 : FFFF;
 225 : FFFF;
 225 : FFFF;
 226 : FFFF;
 226 : FFFF;
 227 : FFFF;
 227 : FFFF;
 228 : FFFF;
 228 : FFFF;
 229 : FFFF;
 229 : FFFF;
 22A : FFFF;
 22A : FFFF;
 22B : FFFF;
 22B : FFFF;
 22C : FFFF;
 22C : FFFF;
 22D : FFFF;
 22D : FFFF;
 22E : FFFF;
 22E : FFFF;
 22F : FFFF;
 22F : FFFF;
 230 : FFFF;
 230 : FFFF;
 231 : FFFF;
 231 : FFFF;
 232 : FFFF;
 232 : FFFF;
 233 : FFFF;
 233 : FFFF;
 234 : FFFF;
 234 : FFFF;
 235 : FFFF;
 235 : FFFF;
 236 : FFFF;
 236 : FFFF;
 237 : FFFF;
 237 : FFFF;
 238 : FFFF;
 238 : FFFF;
 239 : FFFF;
 239 : FFFF;
 23A : FFFF;
 23A : FFFF;
 23B : FFFF;
 23B : FFFF;
 23C : FFFF;
 23C : FFFF;
 23D : FFFF;
 23D : FFFF;
 23E : FFFF;
 23E : FFFF;
 23F : FFFF;
 23F : FFFF;
 240 : FFFF;
 240 : FFFF;
 241 : FFFF;
 241 : FFFF;
 242 : FFFF;
 242 : FFFF;
 243 : FFFF;
 243 : FFFF;
 244 : FFFF;
 244 : FFFF;
 245 : FFFF;
 245 : FFFE;
 246 : FEFE;
 246 : FEFE;
 247 : FEFE;
 247 : FEFE;
 248 : FEFE;
 248 : FEFF;
 249 : FFFE;
 249 : FEFE;
 24A : FEFE;
 24A : FEFE;
 24B : FEFE;
 24B : FEFF;
 24C : FFFE;
 24C : FEFE;
 24D : FEFE;
 24D : FEFF;
 24E : FFFF;
 24E : FFFF;
 24F : FFFF;
 24F : FFFF;
 250 : FFFF;
 250 : FFFF;
 251 : FFFF;
 251 : FFFF;
 252 : FFFF;
 252 : FFFF;
 253 : FFFF;
 253 : FFFF;
 254 : FFFF;
 254 : FFFF;
 255 : FFFF;
 255 : FFFF;
 256 : FFFF;
 256 : FFFF;
 257 : FFFF;
 257 : FFFF;
 258 : FFFF;
 258 : FFFF;
 259 : FFFF;
 259 : FFFF;
 25A : FFFF;
 25A : FFFF;
 25B : FFFF;
 25B : FFFF;
 25C : FFFF;
 25C : FFFF;
 25D : FFFF;
 25D : FFFF;
 25E : FFFF;
 25E : FFFF;
 25F : FFFF;
 25F : FFFF;
 260 : FFFF;
 260 : FFFF;
 261 : FFFF;
 261 : FFFF;
 262 : FFFF;
 262 : FFFF;
 263 : FFFF;
 263 : FFFF;
 264 : FFFF;
 264 : FFFF;
 265 : FFFF;
 265 : FFFF;
 266 : FFFF;
 266 : FFFF;
 267 : FFFF;
 267 : FFFF;
 268 : FFFF;
 268 : FFFF;
 269 : FFFF;
 269 : FFFF;
 26A : FFFF;
 26A : FFFF;
 26B : FFFF;
 26B : FFFF;
 26C : FFFF;
 26C : FFFF;
 26D : FFFF;
 26D : FFFF;
 26E : FFFF;
 26E : FFFF;
 26F : FFFF;
 26F : FFFF;
 270 : FFFF;
 270 : FFFF;
 271 : FFFF;
 271 : FFFF;
 272 : FFFF;
 272 : FFFF;
 273 : FFFF;
 273 : FFFF;
 274 : FFFF;
 274 : FFFF;
 275 : FFFF;
 275 : FFFF;
 276 : FFFF;
 276 : FFFF;
 277 : FFFF;
 277 : FFFF;
 278 : FFFF;
 278 : FFFF;
 279 : FFFF;
 279 : FFFF;
 27A : FFFF;
 27A : FFFF;
 27B : FFFF;
 27B : FFFF;
 27C : FFFF;
 27C : FFFF;
 27D : FFFF;
 27D : FFFF;
 27E : FFFF;
 27E : FFFF;
 27F : FFFF;
 27F : FFFF;
 280 : FFFF;
 280 : FFFF;
 281 : FFFF;
 281 : FFFF;
 282 : FFFF;
 282 : FFFF;
 283 : FFFF;
 283 : FFFF;
 284 : FFFF;
 284 : FFFF;
 285 : FFFF;
 285 : FFFF;
 286 : FFFF;
 286 : FFFF;
 287 : FFFF;
 287 : FFFF;
 288 : FFFF;
 288 : FFFF;
 289 : FFFF;
 289 : FFFF;
 28A : FFFF;
 28A : FFFF;
 28B : FFFF;
 28B : FFFF;
 28C : FFFF;
 28C : FFFF;
 28D : FFFF;
 28D : FFFF;
 28E : FFFF;
 28E : FFFF;
 28F : FFFF;
 28F : FFFF;
 290 : FFFF;
 290 : FFFF;
 291 : FFFF;
 291 : FFFF;
 292 : FFFF;
 292 : FFFF;
 293 : FFFF;
 293 : FFFF;
 294 : FFFF;
 294 : FFFF;
 295 : FFFF;
 295 : FFFF;
 296 : FFFF;
 296 : FFFF;
 297 : FFFF;
 297 : FFFF;
 298 : FFFF;
 298 : FFFF;
 299 : FFFF;
 299 : FFFF;
 29A : FFFF;
 29A : FFFF;
 29B : FFFF;
 29B : FFFF;
 29C : FFFF;
 29C : FFFF;
 29D : FFFF;
 29D : FFFF;
 29E : FFFF;
 29E : FFFF;
 29F : FFFF;
 29F : FFFF;
 2A0 : FFFF;
 2A0 : FFFF;
 2A1 : FFFF;
 2A1 : FFFF;
 2A2 : FFFF;
 2A2 : FFFF;
 2A3 : FFFF;
 2A3 : FFFF;
 2A4 : FFFF;
 2A4 : FFFF;
 2A5 : FFFF;
 2A5 : FFFF;
 2A6 : FFFF;
 2A6 : FFFF;
 2A7 : FFFF;
 2A7 : FFFF;
 2A8 : FFFF;
 2A8 : FFFF;
 2A9 : FFFF;
 2A9 : FFFF;
 2AA : FFFF;
 2AA : FFFF;
 2AB : FFFF;
 2AB : FFFF;
 2AC : FFFF;
 2AC : FFFF;
 2AD : FFFE;
 2AD : FEFE;
 2AE : FEFE;
 2AE : FEFF;
 2AF : FFFF;
 2AF : FFFF;
 2B0 : FFFF;
 2B0 : FFFE;
 2B1 : FEFE;
 2B1 : FEFE;
 2B2 : FEFE;
 2B2 : FEFE;
 2B3 : FEFE;
 2B3 : FEFE;
 2B4 : FEFF;
 2B4 : FFFF;
 2B5 : FFFF;
 2B5 : FFFF;
 2B6 : FFFF;
 2B6 : FFFF;
 2B7 : FFFF;
 2B7 : FFFF;
 2B8 : FFFF;
 2B8 : FFFF;
 2B9 : FFFF;
 2B9 : FFFF;
 2BA : FFFF;
 2BA : FFFF;
 2BB : FFFF;
 2BB : FFFF;
 2BC : FFFF;
 2BC : FFFF;
 2BD : FFFF;
 2BD : FFFF;
 2BE : FFFF;
 2BE : FFFF;
 2BF : FFFF;
 2BF : FFFF;
 2C0 : FFFF;
 2C0 : FFFF;
 2C1 : FFFF;
 2C1 : FFFF;
 2C2 : FFFF;
 2C2 : FFFF;
 2C3 : FFFF;
 2C3 : FFFF;
 2C4 : FFFF;
 2C4 : FFFF;
 2C5 : FFFF;
 2C5 : FFFF;
 2C6 : FFFF;
 2C6 : FFFF;
 2C7 : FFFF;
 2C7 : FFFF;
 2C8 : FFFF;
 2C8 : FFFF;
 2C9 : FFFF;
 2C9 : FFFF;
 2CA : FFFF;
 2CA : FFFF;
 2CB : FFFF;
 2CB : FFFF;
 2CC : FFFF;
 2CC : FFFF;
 2CD : FFFF;
 2CD : FFFF;
 2CE : FFFF;
 2CE : FFFF;
 2CF : FFFF;
 2CF : FFFF;
 2D0 : FFFF;
 2D0 : FFFF;
 2D1 : FFFF;
 2D1 : FFFF;
 2D2 : FFFF;
 2D2 : FFFF;
 2D3 : FFFF;
 2D3 : FFFF;
 2D4 : FFFF;
 2D4 : FFFF;
 2D5 : FFFF;
 2D5 : FFFF;
 2D6 : FFFF;
 2D6 : FFFF;
 2D7 : FFFF;
 2D7 : FFFF;
 2D8 : FFFF;
 2D8 : FFFF;
 2D9 : FFFF;
 2D9 : FFFF;
 2DA : FFFF;
 2DA : FFFF;
 2DB : FFFF;
 2DB : FFFF;
 2DC : FFFF;
 2DC : FFFF;
 2DD : FFFF;
 2DD : FFFF;
 2DE : FFFF;
 2DE : FFFF;
 2DF : FFFF;
 2DF : FFFF;
 2E0 : FFFF;
 2E0 : FFFF;
 2E1 : FFFF;
 2E1 : FFFF;
 2E2 : FFFF;
 2E2 : FFFF;
 2E3 : FFFF;
 2E3 : FFFF;
 2E4 : FFFF;
 2E4 : FFFF;
 2E5 : FFFE;
 2E5 : FEFE;
 2E6 : FEFE;
 2E6 : FEFE;
 2E7 : FEFE;
 2E7 : FEFE;
 2E8 : FEFE;
 2E8 : FEFF;
 2E9 : FFFE;
 2E9 : FEFE;
 2EA : FEFE;
 2EA : FEFE;
 2EB : FEFE;
 2EB : FEFF;
 2EC : FFFE;
 2EC : FEFF;
 2ED : FFFF;
 2ED : FFFF;
 2EE : FFFF;
 2EE : FFFF;
 2EF : FFFF;
 2EF : FFFF;
 2F0 : FFFF;
 2F0 : FFFF;
 2F1 : FFFF;
 2F1 : FFFF;
 2F2 : FFFF;
 2F2 : FFFF;
 2F3 : FFFF;
 2F3 : FFFF;
 2F4 : FFFF;
 2F4 : FFFF;
 2F5 : FFFF;
 2F5 : FFFF;
 2F6 : FFFF;
 2F6 : FFFF;
 2F7 : FFFF;
 2F7 : FFFF;
 2F8 : FFFF;
 2F8 : FFFF;
 2F9 : FFFF;
 2F9 : FFFF;
 2FA : FFFF;
 2FA : FFFF;
 2FB : FFFF;
 2FB : FFFF;
 2FC : FFFF;
 2FC : FFFF;
 2FD : FFFF;
 2FD : FFFF;
 2FE : FFFF;
 2FE : FFFF;
 2FF : FFFF;
 2FF : FFFF;
 300 : FFFF;
 300 : FFFF;
 301 : FFFF;
 301 : FFFF;
 302 : FFFF;
 302 : FFFF;
 303 : FFFF;
 303 : FFFF;
 304 : FFFF;
 304 : FFFF;
 305 : FFFF;
 305 : FFFF;
 306 : FFFF;
 306 : FFFF;
 307 : FFFF;
 307 : FFFF;
 308 : FFFF;
 308 : FFFF;
 309 : FFFF;
 309 : FFFF;
 30A : FFFF;
 30A : FFFF;
 30B : FFFF;
 30B : FFFF;
 30C : FFFF;
 30C : FFFF;
 30D : FFFF;
 30D : FFFF;
 30E : FFFF;
 30E : FFFF;
 30F : FFFF;
 30F : FFFF;
 310 : FFFF;
 310 : FFFF;
 311 : FFFF;
 311 : FFFF;
 312 : FFFF;
 312 : FFFF;
 313 : FFFF;
 313 : FFFF;
 314 : FFFF;
 314 : FFFF;
 315 : FFFF;
 315 : FFFF;
 316 : FFFF;
 316 : FFFF;
 317 : FFFF;
 317 : FFFF;
 318 : FFFF;
 318 : FFFF;
 319 : FFFF;
 319 : FFFF;
 31A : FFFF;
 31A : FFFF;
 31B : FFFF;
 31B : FFFF;
 31C : FFFF;
 31C : FFFF;
 31D : FFFF;
 31D : FFFF;
 31E : FFFF;
 31E : FFFF;
 31F : FFFF;
 31F : FFFF;
 320 : FFFF;
 320 : FFFF;
 321 : FFFF;
 321 : FFFF;
 322 : FFFF;
 322 : FFFF;
 323 : FFFF;
 323 : FFFF;
 324 : FFFF;
 324 : FFFF;
 325 : FFFF;
 325 : FFFF;
 326 : FFFF;
 326 : FFFF;
 327 : FFFF;
 327 : FFFF;
 328 : FFFF;
 328 : FFFF;
 329 : FFFF;
 329 : FFFF;
 32A : FFFF;
 32A : FFFF;
 32B : FFFF;
 32B : FFFF;
 32C : FFFF;
 32C : FFFF;
 32D : FFFF;
 32D : FFFF;
 32E : FFFF;
 32E : FFFF;
 32F : FFFF;
 32F : FFFF;
 330 : FFFF;
 330 : FFFF;
 331 : FFFF;
 331 : FFFF;
 332 : FFFF;
 332 : FFFF;
 333 : FFFF;
 333 : FFFF;
 334 : FFFF;
 334 : FFFF;
 335 : FFFF;
 335 : FFFF;
 336 : FFFF;
 336 : FFFF;
 337 : FFFF;
 337 : FFFF;
 338 : FFFF;
 338 : FFFF;
 339 : FFFF;
 339 : FFFF;
 33A : FFFF;
 33A : FFFF;
 33B : FFFF;
 33B : FFFF;
 33C : FFFF;
 33C : FFFF;
 33D : FFFF;
 33D : FFFF;
 33E : FFFF;
 33E : FFFF;
 33F : FFFF;
 33F : FFFF;
 340 : FFFF;
 340 : FFFF;
 341 : FFFF;
 341 : FFFF;
 342 : FFFF;
 342 : FFFF;
 343 : FFFF;
 343 : FFFF;
 344 : FFFF;
 344 : FFFF;
 345 : FFFF;
 345 : FFFF;
 346 : FFFF;
 346 : FFFF;
 347 : FFFF;
 347 : FFFF;
 348 : FFFF;
 348 : FFFF;
 349 : FFFF;
 349 : FFFF;
 34A : FFFF;
 34A : FFFF;
 34B : FFFF;
 34B : FFFF;
 34C : FFFF;
 34C : FFFE;
 34D : FEFE;
 34D : FEFE;
 34E : FEFF;
 34E : FFFF;
 34F : FFFE;
 34F : FEFE;
 350 : FEFE;
 350 : FEFE;
 351 : FEFE;
 351 : FEFE;
 352 : FEFE;
 352 : FEFE;
 353 : FEFE;
 353 : FEFE;
 354 : FEFF;
 354 : FFFF;
 355 : FFFF;
 355 : FFFF;
 356 : FFFF;
 356 : FFFF;
 357 : FFFF;
 357 : FFFF;
 358 : FFFF;
 358 : FFFF;
 359 : FFFF;
 359 : FFFF;
 35A : FFFF;
 35A : FFFF;
 35B : FFFF;
 35B : FFFF;
 35C : FFFF;
 35C : FFFF;
 35D : FFFF;
 35D : FFFF;
 35E : FFFF;
 35E : FFFF;
 35F : FFFF;
 35F : FFFF;
 360 : FFFF;
 360 : FFFF;
 361 : FFFF;
 361 : FFFF;
 362 : FFFF;
 362 : FFFF;
 363 : FFFF;
 363 : FFFF;
 364 : FFFF;
 364 : FFFF;
 365 : FFFF;
 365 : FFFF;
 366 : FFFF;
 366 : FFFF;
 367 : FFFF;
 367 : FFFF;
 368 : FFFF;
 368 : FFFF;
 369 : FFFF;
 369 : FFFF;
 36A : FFFF;
 36A : FFFF;
 36B : FFFF;
 36B : FFFF;
 36C : FFFF;
 36C : FFFF;
 36D : FFFF;
 36D : FFFF;
 36E : FFFF;
 36E : FFFF;
 36F : FFFF;
 36F : FFFF;
 370 : FFFF;
 370 : FFFF;
 371 : FFFF;
 371 : FFFF;
 372 : FFFF;
 372 : FFFF;
 373 : FFFF;
 373 : FFFF;
 374 : FFFF;
 374 : FFFF;
 375 : FFFF;
 375 : FFFF;
 376 : FFFF;
 376 : FFFF;
 377 : FFFF;
 377 : FFFF;
 378 : FFFF;
 378 : FFFF;
 379 : FFFF;
 379 : FFFF;
 37A : FFFF;
 37A : FFFF;
 37B : FFFF;
 37B : FFFF;
 37C : FFFF;
 37C : FFFF;
 37D : FFFF;
 37D : FFFF;
 37E : FFFF;
 37E : FFFF;
 37F : FFFF;
 37F : FFFF;
 380 : FFFF;
 380 : FFFF;
 381 : FFFF;
 381 : FFFE;
 382 : FEFF;
 382 : FFFF;
 383 : FFFF;
 383 : FFFF;
 384 : FFFF;
 384 : FFFE;
 385 : FEFE;
 385 : FEFE;
 386 : FEFE;
 386 : FEFE;
 387 : FEFE;
 387 : FEFE;
 388 : FEFE;
 388 : FEFF;
 389 : FFFE;
 389 : FEFE;
 38A : FEFE;
 38A : FEFE;
 38B : FEFE;
 38B : FEFE;
 38C : FEFE;
 38C : FEFE;
 38D : FEFF;
 38D : FFFF;
 38E : FFFF;
 38E : FFFF;
 38F : FFFF;
 38F : FFFF;
 390 : FFFF;
 390 : FFFF;
 391 : FFFF;
 391 : FFFF;
 392 : FFFF;
 392 : FFFF;
 393 : FFFF;
 393 : FFFF;
 394 : FFFF;
 394 : FFFF;
 395 : FFFF;
 395 : FFFF;
 396 : FFFF;
 396 : FFFF;
 397 : FFFF;
 397 : FFFF;
 398 : FFFF;
 398 : FFFF;
 399 : FFFF;
 399 : FFFF;
 39A : FFFF;
 39A : FFFF;
 39B : FFFF;
 39B : FFFF;
 39C : FFFF;
 39C : FFFF;
 39D : FFFF;
 39D : FFFF;
 39E : FFFF;
 39E : FFFF;
 39F : FFFF;
 39F : FFFF;
 3A0 : FFFF;
 3A0 : FFFF;
 3A1 : FFFF;
 3A1 : FFFF;
 3A2 : FFFF;
 3A2 : FFFF;
 3A3 : FFFF;
 3A3 : FFFF;
 3A4 : FFFF;
 3A4 : FFFF;
 3A5 : FFFF;
 3A5 : FFFF;
 3A6 : FFFF;
 3A6 : FFFF;
 3A7 : FFFF;
 3A7 : FFFF;
 3A8 : FFFF;
 3A8 : FFFF;
 3A9 : FFFF;
 3A9 : FFFF;
 3AA : FFFF;
 3AA : FFFF;
 3AB : FFFF;
 3AB : FFFF;
 3AC : FFFF;
 3AC : FFFF;
 3AD : FFFF;
 3AD : FFFF;
 3AE : FFFF;
 3AE : FFFF;
 3AF : FFFF;
 3AF : FFFF;
 3B0 : FFFF;
 3B0 : FFFF;
 3B1 : FFFF;
 3B1 : FFFF;
 3B2 : FFFF;
 3B2 : FFFF;
 3B3 : FFFF;
 3B3 : FFFF;
 3B4 : FFFF;
 3B4 : FFFF;
 3B5 : FFFF;
 3B5 : FFFF;
 3B6 : FFFF;
 3B6 : FFFF;
 3B7 : FFFF;
 3B7 : FFFF;
 3B8 : FFFF;
 3B8 : FFFF;
 3B9 : FFFF;
 3B9 : FFFF;
 3BA : FFFF;
 3BA : FFFF;
 3BB : FFFF;
 3BB : FFFF;
 3BC : FFFF;
 3BC : FFFF;
 3BD : FFFF;
 3BD : FFFF;
 3BE : FFFF;
 3BE : FFFF;
 3BF : FFFF;
 3BF : FFFF;
 3C0 : FFFF;
 3C0 : FFFF;
 3C1 : FFFF;
 3C1 : FFFF;
 3C2 : FFFF;
 3C2 : FFFF;
 3C3 : FFFF;
 3C3 : FFFF;
 3C4 : FFFF;
 3C4 : FFFF;
 3C5 : FFFF;
 3C5 : FFFF;
 3C6 : FFFF;
 3C6 : FFFF;
 3C7 : FFFF;
 3C7 : FFFF;
 3C8 : FFFF;
 3C8 : FFFF;
 3C9 : FFFF;
 3C9 : FFFF;
 3CA : FFFF;
 3CA : FFFF;
 3CB : FFFF;
 3CB : FFFF;
 3CC : FFFF;
 3CC : FFFF;
 3CD : FFFF;
 3CD : FFFF;
 3CE : FFFF;
 3CE : FFFF;
 3CF : FFFF;
 3CF : FFFF;
 3D0 : FFFF;
 3D0 : FFFF;
 3D1 : FFFF;
 3D1 : FFFF;
 3D2 : FFFF;
 3D2 : FFFF;
 3D3 : FFFF;
 3D3 : FFFF;
 3D4 : FFFF;
 3D4 : FFFF;
 3D5 : FFFF;
 3D5 : FFFF;
 3D6 : FFFF;
 3D6 : FFFF;
 3D7 : FFFF;
 3D7 : FFFF;
 3D8 : FFFF;
 3D8 : FFFF;
 3D9 : FFFF;
 3D9 : FFFF;
 3DA : FFFF;
 3DA : FFFF;
 3DB : FFFF;
 3DB : FFFF;
 3DC : FFFF;
 3DC : FFFF;
 3DD : FFFF;
 3DD : FFFF;
 3DE : FFFF;
 3DE : FFFF;
 3DF : FFFF;
 3DF : FFFF;
 3E0 : FFFF;
 3E0 : FFFF;
 3E1 : FFFF;
 3E1 : FFFF;
 3E2 : FFFF;
 3E2 : FFFF;
 3E3 : FFFF;
 3E3 : FFFF;
 3E4 : FFFF;
 3E4 : FFFF;
 3E5 : FFFF;
 3E5 : FFFF;
 3E6 : FFFF;
 3E6 : FFFF;
 3E7 : FFFF;
 3E7 : FFFF;
 3E8 : FFFF;
 3E8 : FFFF;
 3E9 : FFFF;
 3E9 : FFFF;
 3EA : FFFF;
 3EA : FFFF;
 3EB : FFFF;
 3EB : FFFF;
 3EC : FFFE;
 3EC : FEFE;
 3ED : FEFE;
 3ED : FEFF;
 3EE : FFFF;
 3EE : FFFE;
 3EF : FEFE;
 3EF : FEFE;
 3F0 : FEFE;
 3F0 : FEFE;
 3F1 : FEFE;
 3F1 : FEFE;
 3F2 : FEFE;
 3F2 : FEFE;
 3F3 : FEFF;
 3F3 : FFFF;
 3F4 : FFFF;
 3F4 : FFFF;
 3F5 : FFFF;
 3F5 : FFFF;
 3F6 : FFFF;
 3F6 : FFFF;
 3F7 : FFFF;
 3F7 : FFFF;
 3F8 : FFFF;
 3F8 : FFFF;
 3F9 : FFFF;
 3F9 : FFFF;
 3FA : FFFF;
 3FA : FFFF;
 3FB : FFFF;
 3FB : FFFF;
 3FC : FFFF;
 3FC : FFFF;
 3FD : FFFF;
 3FD : FFFF;
 3FE : FFFF;
 3FE : FFFF;
 3FF : FFFF;
 3FF : FFFF;
 400 : FFFF;
 400 : FFFF;
 401 : FFFF;
 401 : FFFF;
 402 : FFFF;
 402 : FFFF;
 403 : FFFF;
 403 : FFFF;
 404 : FFFF;
 404 : FFFF;
 405 : FFFF;
 405 : FFFF;
 406 : FFFF;
 406 : FFFF;
 407 : FFFF;
 407 : FFFF;
 408 : FFFF;
 408 : FFFF;
 409 : FFFF;
 409 : FFFF;
 40A : FFFF;
 40A : FFFF;
 40B : FFFF;
 40B : FFFF;
 40C : FFFF;
 40C : FFFF;
 40D : FFFF;
 40D : FFFF;
 40E : FFFF;
 40E : FFFF;
 40F : FFFF;
 40F : FFFF;
 410 : FFFF;
 410 : FFFF;
 411 : FFFF;
 411 : FFFF;
 412 : FFFF;
 412 : FFFF;
 413 : FFFF;
 413 : FFFF;
 414 : FFFF;
 414 : FFFF;
 415 : FFFF;
 415 : FFFF;
 416 : FFFF;
 416 : FFFF;
 417 : FFFF;
 417 : FFFF;
 418 : FFFF;
 418 : FFFF;
 419 : FFFF;
 419 : FFFF;
 41A : FFFF;
 41A : FFFF;
 41B : FFFF;
 41B : FFFF;
 41C : FFFF;
 41C : FFFF;
 41D : FFFF;
 41D : FFFF;
 41E : FFFF;
 41E : FFFF;
 41F : FFFE;
 41F : FEFE;
 420 : FEFE;
 420 : FEFE;
 421 : FEFE;
 421 : FEFE;
 422 : FEFE;
 422 : FEFE;
 423 : FEFF;
 423 : FFFF;
 424 : FFFF;
 424 : FFFE;
 425 : FEFE;
 425 : FEFF;
 426 : FFFF;
 426 : FFFF;
 427 : FFFF;
 427 : FFFF;
 428 : FFFF;
 428 : FFFE;
 429 : FEFE;
 429 : FEFE;
 42A : FEFE;
 42A : FEFE;
 42B : FEFD;
 42B : FDFD;
 42C : FDFE;
 42C : FEFF;
 42D : FFFF;
 42D : FFFF;
 42E : FFFF;
 42E : FFFF;
 42F : FFFF;
 42F : FFFF;
 430 : FFFF;
 430 : FFFF;
 431 : FFFF;
 431 : FFFF;
 432 : FFFF;
 432 : FFFF;
 433 : FFFF;
 433 : FFFF;
 434 : FFFF;
 434 : FFFF;
 435 : FFFF;
 435 : FFFF;
 436 : FFFF;
 436 : FFFF;
 437 : FFFF;
 437 : FFFF;
 438 : FFFF;
 438 : FFFF;
 439 : FFFF;
 439 : FFFF;
 43A : FFFF;
 43A : FFFF;
 43B : FFFF;
 43B : FFFF;
 43C : FFFF;
 43C : FFFF;
 43D : FFFF;
 43D : FFFF;
 43E : FFFF;
 43E : FFFF;
 43F : FFFF;
 43F : FFFF;
 440 : FFFF;
 440 : FFFF;
 441 : FFFF;
 441 : FFFF;
 442 : FFFF;
 442 : FFFF;
 443 : FFFF;
 443 : FFFF;
 444 : FFFF;
 444 : FFFF;
 445 : FFFF;
 445 : FFFF;
 446 : FFFF;
 446 : FFFF;
 447 : FFFF;
 447 : FFFF;
 448 : FFFF;
 448 : FFFF;
 449 : FFFF;
 449 : FFFF;
 44A : FFFF;
 44A : FFFF;
 44B : FFFF;
 44B : FFFF;
 44C : FFFF;
 44C : FFFF;
 44D : FFFF;
 44D : FFFF;
 44E : FFFF;
 44E : FFFF;
 44F : FFFF;
 44F : FFFF;
 450 : FFFF;
 450 : FFFF;
 451 : FFFF;
 451 : FFFF;
 452 : FFFF;
 452 : FFFF;
 453 : FFFF;
 453 : FFFF;
 454 : FFFF;
 454 : FFFF;
 455 : FFFF;
 455 : FFFF;
 456 : FFFF;
 456 : FFFF;
 457 : FFFF;
 457 : FFFF;
 458 : FFFF;
 458 : FFFF;
 459 : FFFF;
 459 : FFFF;
 45A : FFFF;
 45A : FFFF;
 45B : FFFF;
 45B : FFFF;
 45C : FFFF;
 45C : FFFF;
 45D : FFFF;
 45D : FFFF;
 45E : FFFF;
 45E : FFFF;
 45F : FFFF;
 45F : FFFF;
 460 : FFFF;
 460 : FFFF;
 461 : FFFF;
 461 : FFFF;
 462 : FFFF;
 462 : FFFF;
 463 : FFFF;
 463 : FFFF;
 464 : FFFF;
 464 : FFFF;
 465 : FFFF;
 465 : FFFF;
 466 : FFFF;
 466 : FFFF;
 467 : FFFF;
 467 : FFFF;
 468 : FFFF;
 468 : FFFF;
 469 : FFFF;
 469 : FFFF;
 46A : FFFF;
 46A : FFFF;
 46B : FFFF;
 46B : FFFF;
 46C : FFFF;
 46C : FFFF;
 46D : FFFF;
 46D : FFFF;
 46E : FFFF;
 46E : FFFF;
 46F : FFFF;
 46F : FFFF;
 470 : FFFF;
 470 : FFFF;
 471 : FFFF;
 471 : FFFF;
 472 : FFFF;
 472 : FFFF;
 473 : FFFF;
 473 : FFFF;
 474 : FFFF;
 474 : FFFF;
 475 : FFFF;
 475 : FFFF;
 476 : FFFF;
 476 : FFFF;
 477 : FFFF;
 477 : FFFF;
 478 : FFFF;
 478 : FFFF;
 479 : FFFF;
 479 : FFFF;
 47A : FFFF;
 47A : FFFF;
 47B : FFFF;
 47B : FFFF;
 47C : FFFF;
 47C : FFFF;
 47D : FFFF;
 47D : FFFF;
 47E : FFFF;
 47E : FFFF;
 47F : FFFF;
 47F : FFFF;
 480 : FFFF;
 480 : FFFF;
 481 : FFFF;
 481 : FFFF;
 482 : FFFF;
 482 : FFFF;
 483 : FFFF;
 483 : FFFF;
 484 : FFFF;
 484 : FFFF;
 485 : FFFF;
 485 : FFFF;
 486 : FFFF;
 486 : FFFF;
 487 : FFFF;
 487 : FFFF;
 488 : FFFF;
 488 : FFFF;
 489 : FFFF;
 489 : FFFF;
 48A : FFFF;
 48A : FFFF;
 48B : FFFE;
 48B : FEFE;
 48C : FEFE;
 48C : FEFE;
 48D : FEFF;
 48D : FFFE;
 48E : FEFE;
 48E : FEFE;
 48F : FEFE;
 48F : FEFE;
 490 : FEFE;
 490 : FEFE;
 491 : FEFE;
 491 : FEFE;
 492 : FEFF;
 492 : FFFF;
 493 : FFFE;
 493 : FEFF;
 494 : FFFF;
 494 : FFFF;
 495 : FFFF;
 495 : FFFF;
 496 : FFFF;
 496 : FFFF;
 497 : FFFF;
 497 : FFFF;
 498 : FFFF;
 498 : FFFF;
 499 : FFFF;
 499 : FFFF;
 49A : FFFF;
 49A : FFFF;
 49B : FFFF;
 49B : FFFF;
 49C : FFFF;
 49C : FFFF;
 49D : FFFF;
 49D : FFFF;
 49E : FFFF;
 49E : FFFF;
 49F : FFFF;
 49F : FFFF;
 4A0 : FFFF;
 4A0 : FFFF;
 4A1 : FFFF;
 4A1 : FFFF;
 4A2 : FFFF;
 4A2 : FFFF;
 4A3 : FFFF;
 4A3 : FFFF;
 4A4 : FFFF;
 4A4 : FFFF;
 4A5 : FFFF;
 4A5 : FFFF;
 4A6 : FFFF;
 4A6 : FFFF;
 4A7 : FFFF;
 4A7 : FFFF;
 4A8 : FFFF;
 4A8 : FFFF;
 4A9 : FFFF;
 4A9 : FFFF;
 4AA : FFFF;
 4AA : FFFF;
 4AB : FFFF;
 4AB : FFFF;
 4AC : FFFF;
 4AC : FFFF;
 4AD : FFFF;
 4AD : FFFF;
 4AE : FFFF;
 4AE : FFFF;
 4AF : FFFF;
 4AF : FFFF;
 4B0 : FFFF;
 4B0 : FFFF;
 4B1 : FFFF;
 4B1 : FFFF;
 4B2 : FFFF;
 4B2 : FFFF;
 4B3 : FFFF;
 4B3 : FFFF;
 4B4 : FFFF;
 4B4 : FFFF;
 4B5 : FFFF;
 4B5 : FFFF;
 4B6 : FFFF;
 4B6 : FFFF;
 4B7 : FFFF;
 4B7 : FFFF;
 4B8 : FFFF;
 4B8 : FFFF;
 4B9 : FFFF;
 4B9 : FFFF;
 4BA : FFFF;
 4BA : FFFF;
 4BB : FFFF;
 4BB : FFFF;
 4BC : FFFF;
 4BC : FFFF;
 4BD : FFFF;
 4BD : FFFF;
 4BE : FFFF;
 4BE : FFFE;
 4BF : FEFE;
 4BF : FEFE;
 4C0 : FEFE;
 4C0 : FEFE;
 4C1 : FEFE;
 4C1 : FEFE;
 4C2 : FEFF;
 4C2 : FFFF;
 4C3 : FFFF;
 4C3 : FFFF;
 4C4 : FFFF;
 4C4 : FFFE;
 4C5 : FEFE;
 4C5 : FEFE;
 4C6 : FEFE;
 4C6 : FEFE;
 4C7 : FEFE;
 4C7 : FEFE;
 4C8 : FEFF;
 4C8 : FFFF;
 4C9 : FFFE;
 4C9 : FEFE;
 4CA : FEFE;
 4CA : FEFD;
 4CB : FDFD;
 4CB : FDFE;
 4CC : FEFF;
 4CC : FFFF;
 4CD : FFFF;
 4CD : FFFF;
 4CE : FFFF;
 4CE : FFFF;
 4CF : FFFF;
 4CF : FFFF;
 4D0 : FFFF;
 4D0 : FFFF;
 4D1 : FFFF;
 4D1 : FFFF;
 4D2 : FFFF;
 4D2 : FFFF;
 4D3 : FFFF;
 4D3 : FFFF;
 4D4 : FFFF;
 4D4 : FFFF;
 4D5 : FFFF;
 4D5 : FFFF;
 4D6 : FFFF;
 4D6 : FFFF;
 4D7 : FFFF;
 4D7 : FFFF;
 4D8 : FFFF;
 4D8 : FFFF;
 4D9 : FFFF;
 4D9 : FFFF;
 4DA : FFFF;
 4DA : FFFF;
 4DB : FFFF;
 4DB : FFFF;
 4DC : FFFF;
 4DC : FFFF;
 4DD : FFFF;
 4DD : FFFF;
 4DE : FFFF;
 4DE : FFFF;
 4DF : FFFF;
 4DF : FFFF;
 4E0 : FFFF;
 4E0 : FFFF;
 4E1 : FFFF;
 4E1 : FFFF;
 4E2 : FFFF;
 4E2 : FFFF;
 4E3 : FFFF;
 4E3 : FFFF;
 4E4 : FFFF;
 4E4 : FFFF;
 4E5 : FFFF;
 4E5 : FFFF;
 4E6 : FFFF;
 4E6 : FFFF;
 4E7 : FFFF;
 4E7 : FFFF;
 4E8 : FFFF;
 4E8 : FFFF;
 4E9 : FFFF;
 4E9 : FFFF;
 4EA : FFFF;
 4EA : FFFF;
 4EB : FFFF;
 4EB : FFFF;
 4EC : FFFF;
 4EC : FFFF;
 4ED : FFFF;
 4ED : FFFF;
 4EE : FFFF;
 4EE : FFFF;
 4EF : FFFF;
 4EF : FFFF;
 4F0 : FFFF;
 4F0 : FFFF;
 4F1 : FFFF;
 4F1 : FFFF;
 4F2 : FFFF;
 4F2 : FFFF;
 4F3 : FFFF;
 4F3 : FFFF;
 4F4 : FFFF;
 4F4 : FFFF;
 4F5 : FFFF;
 4F5 : FFFF;
 4F6 : FFFF;
 4F6 : FFFF;
 4F7 : FFFF;
 4F7 : FFFF;
 4F8 : FFFF;
 4F8 : FFFF;
 4F9 : FFFF;
 4F9 : FFFF;
 4FA : FFFF;
 4FA : FFFF;
 4FB : FFFF;
 4FB : FFFF;
 4FC : FFFF;
 4FC : FFFF;
 4FD : FFFF;
 4FD : FFFF;
 4FE : FFFF;
 4FE : FFFF;
 4FF : FFFF;
 4FF : FFFF;
 500 : FFFF;
 500 : FFFF;
 501 : FFFF;
 501 : FFFF;
 502 : FFFF;
 502 : FFFF;
 503 : FFFF;
 503 : FFFF;
 504 : FFFF;
 504 : FFFF;
 505 : FFFF;
 505 : FFFF;
 506 : FFFF;
 506 : FFFF;
 507 : FFFF;
 507 : FFFF;
 508 : FFFF;
 508 : FFFF;
 509 : FFFF;
 509 : FFFF;
 50A : FFFF;
 50A : FFFF;
 50B : FFFF;
 50B : FFFF;
 50C : FFFF;
 50C : FFFF;
 50D : FFFF;
 50D : FFFF;
 50E : FFFF;
 50E : FFFF;
 50F : FFFF;
 50F : FFFF;
 510 : FFFF;
 510 : FFFF;
 511 : FFFF;
 511 : FFFF;
 512 : FFFF;
 512 : FFFF;
 513 : FFFF;
 513 : FFFF;
 514 : FFFF;
 514 : FFFF;
 515 : FFFF;
 515 : FFFF;
 516 : FFFF;
 516 : FFFF;
 517 : FFFF;
 517 : FFFF;
 518 : FFFF;
 518 : FFFF;
 519 : FFFF;
 519 : FFFF;
 51A : FFFF;
 51A : FFFF;
 51B : FFFF;
 51B : FFFF;
 51C : FFFF;
 51C : FFFF;
 51D : FFFF;
 51D : FFFF;
 51E : FFFF;
 51E : FFFF;
 51F : FFFF;
 51F : FFFF;
 520 : FFFF;
 520 : FFFF;
 521 : FFFF;
 521 : FFFF;
 522 : FFFF;
 522 : FFFF;
 523 : FFFF;
 523 : FFFF;
 524 : FFFF;
 524 : FFFF;
 525 : FFFF;
 525 : FFFF;
 526 : FFFF;
 526 : FFFF;
 527 : FFFF;
 527 : FFFF;
 528 : FFFF;
 528 : FFFF;
 529 : FFFF;
 529 : FFFF;
 52A : FFFF;
 52A : FFFE;
 52B : FEFE;
 52B : FEFE;
 52C : FEFF;
 52C : FFFE;
 52D : FEFE;
 52D : FEFE;
 52E : FEFE;
 52E : FEFE;
 52F : FEFE;
 52F : FEFE;
 530 : FEFB;
 530 : FBF8;
 531 : F8FD;
 531 : FDFE;
 532 : FEF9;
 532 : F9FC;
 533 : FCFD;
 533 : FDFB;
 534 : FBFA;
 534 : FAFB;
 535 : FBFF;
 535 : FFFF;
 536 : FFFF;
 536 : FFFD;
 537 : FDFF;
 537 : FFFF;
 538 : FFFF;
 538 : FFFF;
 539 : FFFE;
 539 : FEFE;
 53A : FEFE;
 53A : FEFF;
 53B : FFFF;
 53B : FFFF;
 53C : FFFF;
 53C : FFFF;
 53D : FFFF;
 53D : FFFF;
 53E : FFFF;
 53E : FFFF;
 53F : FFFF;
 53F : FFFF;
 540 : FFFF;
 540 : FFFF;
 541 : FFFF;
 541 : FFFF;
 542 : FFFF;
 542 : FFFF;
 543 : FFFF;
 543 : FFFF;
 544 : FFFF;
 544 : FFFF;
 545 : FFFF;
 545 : FFFF;
 546 : FFFF;
 546 : FFFF;
 547 : FFFF;
 547 : FFFF;
 548 : FFFF;
 548 : FFFF;
 549 : FFFF;
 549 : FFFF;
 54A : FFFF;
 54A : FFFF;
 54B : FFFF;
 54B : FFFF;
 54C : FFFF;
 54C : FFFF;
 54D : FFFF;
 54D : FFFF;
 54E : FFFF;
 54E : FFFF;
 54F : FFFF;
 54F : FFFF;
 550 : FFFF;
 550 : FFFF;
 551 : FFFF;
 551 : FFFF;
 552 : FFFF;
 552 : FFFF;
 553 : FFFF;
 553 : FFFF;
 554 : FFFF;
 554 : FFFF;
 555 : FFFF;
 555 : FFFF;
 556 : FFFF;
 556 : FFFF;
 557 : FFFF;
 557 : FFFF;
 558 : FFFF;
 558 : FFFF;
 559 : FFFF;
 559 : FFFF;
 55A : FFFF;
 55A : FFFF;
 55B : FFFF;
 55B : FFFF;
 55C : FFFF;
 55C : FFFF;
 55D : FFFF;
 55D : FFFF;
 55E : FFFE;
 55E : FEFE;
 55F : FEFE;
 55F : FEFD;
 560 : FDFD;
 560 : FDFE;
 561 : FEFF;
 561 : FFFF;
 562 : FFFE;
 562 : FEFD;
 563 : FDF8;
 563 : F8FD;
 564 : FDFE;
 564 : FEFB;
 565 : FBFA;
 565 : FAFC;
 566 : FCFD;
 566 : FDFB;
 567 : FBFE;
 567 : FEFF;
 568 : FFFE;
 568 : FEFF;
 569 : FFFE;
 569 : FEFE;
 56A : FEFC;
 56A : FCFD;
 56B : FDFE;
 56B : FEFF;
 56C : FFFF;
 56C : FFFF;
 56D : FFFF;
 56D : FFFF;
 56E : FFFF;
 56E : FFFF;
 56F : FFFF;
 56F : FFFF;
 570 : FFFF;
 570 : FFFF;
 571 : FFFF;
 571 : FFFF;
 572 : FFFF;
 572 : FFFF;
 573 : FFFF;
 573 : FFFF;
 574 : FFFF;
 574 : FFFF;
 575 : FFFF;
 575 : FFFF;
 576 : FFFF;
 576 : FFFF;
 577 : FFFF;
 577 : FFFF;
 578 : FFFF;
 578 : FFFF;
 579 : FFFF;
 579 : FFFF;
 57A : FFFF;
 57A : FFFF;
 57B : FFFF;
 57B : FFFF;
 57C : FFFF;
 57C : FFFF;
 57D : FFFF;
 57D : FFFF;
 57E : FFFF;
 57E : FFFF;
 57F : FFFF;
 57F : FFFF;
 580 : FFFF;
 580 : FFFF;
 581 : FFFF;
 581 : FFFF;
 582 : FFFF;
 582 : FFFF;
 583 : FFFF;
 583 : FFFF;
 584 : FFFF;
 584 : FFFF;
 585 : FFFF;
 585 : FFFF;
 586 : FFFF;
 586 : FFFF;
 587 : FFFF;
 587 : FFFF;
 588 : FFFF;
 588 : FFFF;
 589 : FFFF;
 589 : FFFF;
 58A : FFFF;
 58A : FFFF;
 58B : FFFF;
 58B : FFFF;
 58C : FFFF;
 58C : FFFF;
 58D : FFFF;
 58D : FFFF;
 58E : FFFF;
 58E : FFFF;
 58F : FFFF;
 58F : FFFF;
 590 : FFFF;
 590 : FFFF;
 591 : FFFF;
 591 : FFFF;
 592 : FFFF;
 592 : FFFF;
 593 : FFFF;
 593 : FFFF;
 594 : FFFF;
 594 : FFFF;
 595 : FFFF;
 595 : FFFF;
 596 : FFFF;
 596 : FFFF;
 597 : FFFF;
 597 : FFFF;
 598 : FFFF;
 598 : FFFF;
 599 : FFFF;
 599 : FFFF;
 59A : FFFF;
 59A : FFFF;
 59B : FFFF;
 59B : FFFF;
 59C : FFFF;
 59C : FFFF;
 59D : FFFF;
 59D : FFFF;
 59E : FFFF;
 59E : FFFF;
 59F : FFFF;
 59F : FFFF;
 5A0 : FFFF;
 5A0 : FFFF;
 5A1 : FFFF;
 5A1 : FFFF;
 5A2 : FFFF;
 5A2 : FFFF;
 5A3 : FFFF;
 5A3 : FFFF;
 5A4 : FFFF;
 5A4 : FFFF;
 5A5 : FFFF;
 5A5 : FFFF;
 5A6 : FFFF;
 5A6 : FFFF;
 5A7 : FFFF;
 5A7 : FFFF;
 5A8 : FFFF;
 5A8 : FFFF;
 5A9 : FFFF;
 5A9 : FFFF;
 5AA : FFFF;
 5AA : FFFF;
 5AB : FFFF;
 5AB : FFFF;
 5AC : FFFF;
 5AC : FFFF;
 5AD : FFFF;
 5AD : FFFF;
 5AE : FFFF;
 5AE : FFFF;
 5AF : FFFF;
 5AF : FFFF;
 5B0 : FFFF;
 5B0 : FFFF;
 5B1 : FFFF;
 5B1 : FFFF;
 5B2 : FFFF;
 5B2 : FFFF;
 5B3 : FFFF;
 5B3 : FFFF;
 5B4 : FFFF;
 5B4 : FFFF;
 5B5 : FFFF;
 5B5 : FFFF;
 5B6 : FFFF;
 5B6 : FFFF;
 5B7 : FFFF;
 5B7 : FFFF;
 5B8 : FFFF;
 5B8 : FFFF;
 5B9 : FFFF;
 5B9 : FFFF;
 5BA : FFFF;
 5BA : FFFF;
 5BB : FFFF;
 5BB : FFFF;
 5BC : FFFF;
 5BC : FFFF;
 5BD : FFFF;
 5BD : FFFF;
 5BE : FFFF;
 5BE : FFFF;
 5BF : FFFF;
 5BF : FFFF;
 5C0 : FFFF;
 5C0 : FFFF;
 5C1 : FFFF;
 5C1 : FFFF;
 5C2 : FFFF;
 5C2 : FFFF;
 5C3 : FFFF;
 5C3 : FFFF;
 5C4 : FFFF;
 5C4 : FFFF;
 5C5 : FFFF;
 5C5 : FFFF;
 5C6 : FFFF;
 5C6 : FFFF;
 5C7 : FFFF;
 5C7 : FFFF;
 5C8 : FFFF;
 5C8 : FFFF;
 5C9 : FFFF;
 5C9 : FFFF;
 5CA : FFFE;
 5CA : FEFE;
 5CB : FEFE;
 5CB : FEFF;
 5CC : FFFE;
 5CC : FEFE;
 5CD : FEFE;
 5CD : FEFE;
 5CE : FEFE;
 5CE : FEFC;
 5CF : FCFE;
 5CF : FEFA;
 5D0 : FAF8;
 5D0 : F8FE;
 5D1 : FEFE;
 5D1 : FEFA;
 5D2 : FAFD;
 5D2 : FDFF;
 5D3 : FFFC;
 5D3 : FCFB;
 5D4 : FBFC;
 5D4 : FCFE;
 5D5 : FEFF;
 5D5 : FFFF;
 5D6 : FFFE;
 5D6 : FEFF;
 5D7 : FFFF;
 5D7 : FFFF;
 5D8 : FFFF;
 5D8 : FFFE;
 5D9 : FEFE;
 5D9 : FEFE;
 5DA : FEFE;
 5DA : FEFF;
 5DB : FFFF;
 5DB : FFFF;
 5DC : FFFF;
 5DC : FFFF;
 5DD : FFFF;
 5DD : FFFF;
 5DE : FFFF;
 5DE : FFFF;
 5DF : FFFF;
 5DF : FFFF;
 5E0 : FFFF;
 5E0 : FFFF;
 5E1 : FFFF;
 5E1 : FFFF;
 5E2 : FFFF;
 5E2 : FFFF;
 5E3 : FFFF;
 5E3 : FFFF;
 5E4 : FFFF;
 5E4 : FFFF;
 5E5 : FFFF;
 5E5 : FFFF;
 5E6 : FFFF;
 5E6 : FFFF;
 5E7 : FFFF;
 5E7 : FFFF;
 5E8 : FFFF;
 5E8 : FFFF;
 5E9 : FFFF;
 5E9 : FFFF;
 5EA : FFFF;
 5EA : FFFF;
 5EB : FFFF;
 5EB : FFFF;
 5EC : FFFF;
 5EC : FFFF;
 5ED : FFFF;
 5ED : FFFF;
 5EE : FFFF;
 5EE : FFFF;
 5EF : FFFF;
 5EF : FFFF;
 5F0 : FFFF;
 5F0 : FFFF;
 5F1 : FFFF;
 5F1 : FFFF;
 5F2 : FFFF;
 5F2 : FFFF;
 5F3 : FFFF;
 5F3 : FFFF;
 5F4 : FFFF;
 5F4 : FFFF;
 5F5 : FFFF;
 5F5 : FFFF;
 5F6 : FFFF;
 5F6 : FFFF;
 5F7 : FFFF;
 5F7 : FFFF;
 5F8 : FFFF;
 5F8 : FFFF;
 5F9 : FFFF;
 5F9 : FFFF;
 5FA : FFFF;
 5FA : FFFF;
 5FB : FFFF;
 5FB : FFFF;
 5FC : FFFF;
 5FC : FFFF;
 5FD : FFFF;
 5FD : FFFE;
 5FE : FEFE;
 5FE : FEFE;
 5FF : FEFE;
 5FF : FEFE;
 600 : FEFF;
 600 : FFFF;
 601 : FFFD;
 601 : FDFD;
 602 : FDFC;
 602 : FCFD;
 603 : FDFE;
 603 : FEFC;
 604 : FCFA;
 604 : FAFB;
 605 : FBFC;
 605 : FCFD;
 606 : FDFA;
 606 : FAFE;
 607 : FEFF;
 607 : FFFE;
 608 : FEFE;
 608 : FEFF;
 609 : FFFE;
 609 : FEFD;
 60A : FDFE;
 60A : FEFE;
 60B : FEFF;
 60B : FFFF;
 60C : FFFF;
 60C : FFFF;
 60D : FFFF;
 60D : FFFF;
 60E : FFFF;
 60E : FFFF;
 60F : FFFF;
 60F : FFFF;
 610 : FFFF;
 610 : FFFF;
 611 : FFFF;
 611 : FFFF;
 612 : FFFF;
 612 : FFFF;
 613 : FFFF;
 613 : FFFF;
 614 : FFFF;
 614 : FFFF;
 615 : FFFF;
 615 : FFFF;
 616 : FFFF;
 616 : FFFF;
 617 : FFFF;
 617 : FFFF;
 618 : FFFF;
 618 : FFFF;
 619 : FFFF;
 619 : FFFF;
 61A : FFFF;
 61A : FFFF;
 61B : FFFF;
 61B : FFFF;
 61C : FFFF;
 61C : FFFF;
 61D : FFFF;
 61D : FFFF;
 61E : FFFF;
 61E : FFFF;
 61F : FFFF;
 61F : FFFF;
 620 : FFFF;
 620 : FFFF;
 621 : FFFF;
 621 : FFFF;
 622 : FFFF;
 622 : FFFF;
 623 : FFFF;
 623 : FFFF;
 624 : FFFF;
 624 : FFFF;
 625 : FFFF;
 625 : FFFF;
 626 : FFFF;
 626 : FFFF;
 627 : FFFF;
 627 : FFFF;
 628 : FFFF;
 628 : FFFF;
 629 : FFFF;
 629 : FFFF;
 62A : FFFF;
 62A : FFFF;
 62B : FFFF;
 62B : FFFF;
 62C : FFFF;
 62C : FFFF;
 62D : FFFF;
 62D : FFFF;
 62E : FFFF;
 62E : FFFF;
 62F : FFFF;
 62F : FFFF;
 630 : FFFF;
 630 : FFFF;
 631 : FFFF;
 631 : FFFF;
 632 : FFFF;
 632 : FFFF;
 633 : FFFF;
 633 : FFFF;
 634 : FFFF;
 634 : FFFF;
 635 : FFFF;
 635 : FFFF;
 636 : FFFF;
 636 : FFFF;
 637 : FFFF;
 637 : FFFF;
 638 : FFFF;
 638 : FFFF;
 639 : FFFF;
 639 : FFFF;
 63A : FFFF;
 63A : FFFF;
 63B : FFFF;
 63B : FFFF;
 63C : FFFF;
 63C : FFFF;
 63D : FFFF;
 63D : FFFF;
 63E : FFFF;
 63E : FFFF;
 63F : FFFF;
 63F : FFFF;
 640 : FFFF;
 640 : FFFF;
 641 : FFFF;
 641 : FFFF;
 642 : FFFF;
 642 : FFFF;
 643 : FFFF;
 643 : FFFF;
 644 : FFFF;
 644 : FFFF;
 645 : FFFF;
 645 : FFFF;
 646 : FFFF;
 646 : FFFF;
 647 : FFFF;
 647 : FFFF;
 648 : FFFF;
 648 : FFFF;
 649 : FFFF;
 649 : FFFF;
 64A : FFFF;
 64A : FFFF;
 64B : FFFF;
 64B : FFFF;
 64C : FFFF;
 64C : FFFF;
 64D : FFFF;
 64D : FFFF;
 64E : FFFF;
 64E : FFFF;
 64F : FFFF;
 64F : FFFF;
 650 : FFFF;
 650 : FFFF;
 651 : FFFF;
 651 : FFFF;
 652 : FFFF;
 652 : FFFF;
 653 : FFFF;
 653 : FFFF;
 654 : FFFF;
 654 : FFFF;
 655 : FFFF;
 655 : FFFF;
 656 : FFFF;
 656 : FFFF;
 657 : FFFF;
 657 : FFFF;
 658 : FFFF;
 658 : FFFF;
 659 : FFFF;
 659 : FFFF;
 65A : FFFF;
 65A : FFFF;
 65B : FFFF;
 65B : FFFF;
 65C : FFFF;
 65C : FFFF;
 65D : FFFF;
 65D : FFFF;
 65E : FFFF;
 65E : FFFF;
 65F : FFFF;
 65F : FFFF;
 660 : FFFF;
 660 : FFFF;
 661 : FFFF;
 661 : FFFF;
 662 : FFFF;
 662 : FFFF;
 663 : FFFF;
 663 : FFFF;
 664 : FFFF;
 664 : FFFF;
 665 : FFFF;
 665 : FFFF;
 666 : FFFF;
 666 : FFFF;
 667 : FFFF;
 667 : FFFF;
 668 : FFFF;
 668 : FFFF;
 669 : FFFF;
 669 : FFFE;
 66A : FEFE;
 66A : FEFE;
 66B : FEFF;
 66B : FFFE;
 66C : FEFE;
 66C : FEFE;
 66D : FEFE;
 66D : FEFE;
 66E : FEFC;
 66E : FCFD;
 66F : FDF9;
 66F : F9F9;
 670 : F9FD;
 670 : FDFD;
 671 : FDFA;
 671 : FAFE;
 672 : FEFE;
 672 : FEFE;
 673 : FEFC;
 673 : FCFC;
 674 : FCFD;
 674 : FDFF;
 675 : FFFF;
 675 : FFFF;
 676 : FFFF;
 676 : FFFF;
 677 : FFFE;
 677 : FEFE;
 678 : FEFE;
 678 : FEFE;
 679 : FEFE;
 679 : FEFE;
 67A : FEFF;
 67A : FFFF;
 67B : FFFF;
 67B : FFFF;
 67C : FFFF;
 67C : FFFF;
 67D : FFFF;
 67D : FFFF;
 67E : FFFF;
 67E : FFFF;
 67F : FFFF;
 67F : FFFF;
 680 : FFFF;
 680 : FFFF;
 681 : FFFF;
 681 : FFFF;
 682 : FFFF;
 682 : FFFF;
 683 : FFFF;
 683 : FFFF;
 684 : FFFF;
 684 : FFFF;
 685 : FFFF;
 685 : FFFF;
 686 : FFFF;
 686 : FFFF;
 687 : FFFF;
 687 : FFFF;
 688 : FFFF;
 688 : FFFF;
 689 : FFFF;
 689 : FFFF;
 68A : FFFF;
 68A : FFFF;
 68B : FFFF;
 68B : FFFF;
 68C : FFFF;
 68C : FFFF;
 68D : FFFF;
 68D : FFFF;
 68E : FFFF;
 68E : FFFF;
 68F : FFFF;
 68F : FFFF;
 690 : FFFF;
 690 : FFFF;
 691 : FFFF;
 691 : FFFF;
 692 : FFFF;
 692 : FFFF;
 693 : FFFF;
 693 : FFFF;
 694 : FFFF;
 694 : FFFF;
 695 : FFFF;
 695 : FFFF;
 696 : FFFF;
 696 : FFFF;
 697 : FFFF;
 697 : FFFF;
 698 : FFFF;
 698 : FFFF;
 699 : FFFF;
 699 : FFFF;
 69A : FFFF;
 69A : FFFF;
 69B : FFFF;
 69B : FFFF;
 69C : FFFF;
 69C : FFFF;
 69D : FFFE;
 69D : FEFE;
 69E : FEFD;
 69E : FDFE;
 69F : FEFF;
 69F : FFFE;
 6A0 : FEFC;
 6A0 : FCFC;
 6A1 : FCFC;
 6A1 : FCFC;
 6A2 : FCFE;
 6A2 : FEFE;
 6A3 : FEFC;
 6A3 : FCF9;
 6A4 : F9FB;
 6A4 : FBFB;
 6A5 : FBFC;
 6A5 : FCF9;
 6A6 : F9FE;
 6A6 : FEFF;
 6A7 : FFFE;
 6A7 : FEFE;
 6A8 : FEFE;
 6A8 : FEFF;
 6A9 : FFFE;
 6A9 : FEFE;
 6AA : FEFE;
 6AA : FEFF;
 6AB : FFFF;
 6AB : FFFF;
 6AC : FFFF;
 6AC : FFFF;
 6AD : FFFF;
 6AD : FFFF;
 6AE : FFFF;
 6AE : FFFF;
 6AF : FFFF;
 6AF : FFFF;
 6B0 : FFFF;
 6B0 : FFFF;
 6B1 : FFFF;
 6B1 : FFFF;
 6B2 : FFFF;
 6B2 : FFFF;
 6B3 : FFFF;
 6B3 : FFFF;
 6B4 : FFFF;
 6B4 : FFFF;
 6B5 : FFFF;
 6B5 : FFFF;
 6B6 : FFFF;
 6B6 : FFFF;
 6B7 : FFFF;
 6B7 : FFFF;
 6B8 : FFFF;
 6B8 : FFFF;
 6B9 : FFFF;
 6B9 : FFFF;
 6BA : FFFF;
 6BA : FFFF;
 6BB : FFFF;
 6BB : FFFF;
 6BC : FFFF;
 6BC : FFFF;
 6BD : FFFF;
 6BD : FFFF;
 6BE : FFFF;
 6BE : FFFF;
 6BF : FFFF;
 6BF : FFFF;
 6C0 : FFFF;
 6C0 : FFFF;
 6C1 : FFFF;
 6C1 : FFFF;
 6C2 : FFFF;
 6C2 : FFFF;
 6C3 : FFFF;
 6C3 : FFFF;
 6C4 : FFFF;
 6C4 : FFFF;
 6C5 : FFFF;
 6C5 : FFFF;
 6C6 : FFFF;
 6C6 : FFFF;
 6C7 : FFFF;
 6C7 : FFFF;
 6C8 : FFFF;
 6C8 : FFFF;
 6C9 : FFFF;
 6C9 : FFFF;
 6CA : FFFF;
 6CA : FFFF;
 6CB : FFFF;
 6CB : FFFF;
 6CC : FFFF;
 6CC : FFFF;
 6CD : FFFF;
 6CD : FFFF;
 6CE : FFFF;
 6CE : FFFF;
 6CF : FFFF;
 6CF : FFFF;
 6D0 : FFFF;
 6D0 : FFFF;
 6D1 : FFFF;
 6D1 : FFFF;
 6D2 : FFFF;
 6D2 : FFFF;
 6D3 : FFFF;
 6D3 : FFFF;
 6D4 : FFFF;
 6D4 : FFFF;
 6D5 : FFFF;
 6D5 : FFFF;
 6D6 : FFFF;
 6D6 : FFFF;
 6D7 : FFFF;
 6D7 : FFFF;
 6D8 : FFFF;
 6D8 : FFFF;
 6D9 : FFFF;
 6D9 : FFFF;
 6DA : FFFF;
 6DA : FFFF;
 6DB : FFFF;
 6DB : FFFF;
 6DC : FFFF;
 6DC : FFFF;
 6DD : FFFF;
 6DD : FFFF;
 6DE : FFFF;
 6DE : FFFF;
 6DF : FFFF;
 6DF : FFFF;
 6E0 : FFFF;
 6E0 : FFFF;
 6E1 : FFFF;
 6E1 : FFFF;
 6E2 : FFFF;
 6E2 : FFFF;
 6E3 : FFFF;
 6E3 : FFFF;
 6E4 : FFFF;
 6E4 : FFFF;
 6E5 : FFFF;
 6E5 : FFFF;
 6E6 : FFFF;
 6E6 : FFFF;
 6E7 : FFFF;
 6E7 : FFFF;
 6E8 : FFFF;
 6E8 : FFFF;
 6E9 : FFFF;
 6E9 : FFFF;
 6EA : FFFF;
 6EA : FFFF;
 6EB : FFFF;
 6EB : FFFF;
 6EC : FFFF;
 6EC : FFFF;
 6ED : FFFF;
 6ED : FFFF;
 6EE : FFFF;
 6EE : FFFF;
 6EF : FFFF;
 6EF : FFFF;
 6F0 : FFFF;
 6F0 : FFFF;
 6F1 : FFFF;
 6F1 : FFFF;
 6F2 : FFFF;
 6F2 : FFFF;
 6F3 : FFFF;
 6F3 : FFFF;
 6F4 : FFFF;
 6F4 : FFFF;
 6F5 : FFFF;
 6F5 : FFFF;
 6F6 : FFFF;
 6F6 : FFFF;
 6F7 : FFFF;
 6F7 : FFFF;
 6F8 : FFFF;
 6F8 : FFFF;
 6F9 : FFFF;
 6F9 : FFFF;
 6FA : FFFF;
 6FA : FFFF;
 6FB : FFFF;
 6FB : FFFF;
 6FC : FFFF;
 6FC : FFFF;
 6FD : FFFF;
 6FD : FFFF;
 6FE : FFFF;
 6FE : FFFF;
 6FF : FFFF;
 6FF : FFFF;
 700 : FFFF;
 700 : FFFF;
 701 : FFFF;
 701 : FFFF;
 702 : FFFF;
 702 : FFFF;
 703 : FFFF;
 703 : FFFF;
 704 : FFFF;
 704 : FFFF;
 705 : FFFF;
 705 : FFFF;
 706 : FFFF;
 706 : FFFF;
 707 : FFFF;
 707 : FFFF;
 708 : FFFF;
 708 : FFFF;
 709 : FFFE;
 709 : FEFE;
 70A : FEFE;
 70A : FEFF;
 70B : FFFE;
 70B : FEFE;
 70C : FEFE;
 70C : FEFE;
 70D : FEFE;
 70D : FEFC;
 70E : FCFD;
 70E : FDFA;
 70F : FAFB;
 70F : FBFD;
 710 : FDFC;
 710 : FCF6;
 711 : F6FA;
 711 : FAFE;
 712 : FEFF;
 712 : FFFD;
 713 : FDFC;
 713 : FCFD;
 714 : FDFE;
 714 : FEFF;
 715 : FFFF;
 715 : FFFF;
 716 : FFFF;
 716 : FFFE;
 717 : FEFE;
 717 : FEFE;
 718 : FEFE;
 718 : FEFE;
 719 : FEFE;
 719 : FEFF;
 71A : FFFF;
 71A : FFFF;
 71B : FFFF;
 71B : FFFF;
 71C : FFFF;
 71C : FFFF;
 71D : FFFF;
 71D : FFFF;
 71E : FFFF;
 71E : FFFF;
 71F : FFFF;
 71F : FFFF;
 720 : FFFF;
 720 : FFFF;
 721 : FFFF;
 721 : FFFF;
 722 : FFFF;
 722 : FFFF;
 723 : FFFF;
 723 : FFFF;
 724 : FFFF;
 724 : FFFF;
 725 : FFFF;
 725 : FFFF;
 726 : FFFF;
 726 : FFFF;
 727 : FFFF;
 727 : FFFF;
 728 : FFFF;
 728 : FFFF;
 729 : FFFF;
 729 : FFFF;
 72A : FFFF;
 72A : FFFF;
 72B : FFFF;
 72B : FFFF;
 72C : FFFF;
 72C : FFFF;
 72D : FFFF;
 72D : FFFF;
 72E : FFFF;
 72E : FFFF;
 72F : FFFF;
 72F : FFFF;
 730 : FFFF;
 730 : FFFF;
 731 : FFFF;
 731 : FFFF;
 732 : FFFF;
 732 : FFFF;
 733 : FFFF;
 733 : FFFF;
 734 : FFFF;
 734 : FFFF;
 735 : FFFF;
 735 : FFFF;
 736 : FFFF;
 736 : FFFF;
 737 : FFFF;
 737 : FFFF;
 738 : FFFF;
 738 : FFFF;
 739 : FFFF;
 739 : FFFF;
 73A : FFFF;
 73A : FFFF;
 73B : FFFF;
 73B : FFFF;
 73C : FFFF;
 73C : FFFE;
 73D : FEFE;
 73D : FEFC;
 73E : FCFF;
 73E : FFFF;
 73F : FFFE;
 73F : FEFC;
 740 : FCFE;
 740 : FEFE;
 741 : FEFD;
 741 : FDFA;
 742 : FAFC;
 742 : FCFD;
 743 : FDFB;
 743 : FBFB;
 744 : FBFB;
 744 : FBFC;
 745 : FCFD;
 745 : FDFE;
 746 : FEFF;
 746 : FFFE;
 747 : FEFE;
 747 : FEFE;
 748 : FEFF;
 748 : FFFE;
 749 : FEFE;
 749 : FEFF;
 74A : FFFF;
 74A : FFFF;
 74B : FFFF;
 74B : FFFF;
 74C : FFFF;
 74C : FFFF;
 74D : FFFF;
 74D : FFFF;
 74E : FFFF;
 74E : FFFF;
 74F : FFFF;
 74F : FFFF;
 750 : FFFF;
 750 : FFFF;
 751 : FFFF;
 751 : FFFF;
 752 : FFFF;
 752 : FFFF;
 753 : FFFF;
 753 : FFFF;
 754 : FFFF;
 754 : FFFF;
 755 : FFFF;
 755 : FFFF;
 756 : FFFF;
 756 : FFFF;
 757 : FFFF;
 757 : FFFF;
 758 : FFFF;
 758 : FFFF;
 759 : FFFF;
 759 : FFFF;
 75A : FFFF;
 75A : FFFF;
 75B : FFFF;
 75B : FFFF;
 75C : FFFF;
 75C : FFFF;
 75D : FFFF;
 75D : FFFF;
 75E : FFFF;
 75E : FFFF;
 75F : FFFF;
 75F : FFFF;
 760 : FFFF;
 760 : FFFF;
 761 : FFFF;
 761 : FFFF;
 762 : FFFF;
 762 : FFFF;
 763 : FFFF;
 763 : FFFF;
 764 : FFFF;
 764 : FFFF;
 765 : FFFF;
 765 : FFFF;
 766 : FFFF;
 766 : FFFF;
 767 : FFFF;
 767 : FFFF;
 768 : FFFF;
 768 : FFFF;
 769 : FFFF;
 769 : FFFF;
 76A : FFFF;
 76A : FFFF;
 76B : FFFF;
 76B : FFFF;
 76C : FFFF;
 76C : FFFF;
 76D : FFFF;
 76D : FFFF;
 76E : FFFF;
 76E : FFFF;
 76F : FFFF;
 76F : FFFF;
 770 : FFFF;
 770 : FFFF;
 771 : FFFF;
 771 : FFFF;
 772 : FFFF;
 772 : FFFF;
 773 : FFFF;
 773 : FFFF;
 774 : FFFF;
 774 : FFFF;
 775 : FFFF;
 775 : FFFF;
 776 : FFFF;
 776 : FFFF;
 777 : FFFF;
 777 : FFFF;
 778 : FFFF;
 778 : FFFF;
 779 : FFFF;
 779 : FFFF;
 77A : FFFF;
 77A : FFFF;
 77B : FFFF;
 77B : FFFF;
 77C : FFFF;
 77C : FFFF;
 77D : FFFF;
 77D : FFFF;
 77E : FFFF;
 77E : FFFF;
 77F : FFFF;
 77F : FFFF;
 780 : FFFF;
 780 : FFFF;
 781 : FFFF;
 781 : FFFF;
 782 : FFFF;
 782 : FFFF;
 783 : FFFF;
 783 : FFFF;
 784 : FFFF;
 784 : FFFF;
 785 : FFFF;
 785 : FFFF;
 786 : FFFF;
 786 : FFFF;
 787 : FFFF;
 787 : FFFF;
 788 : FFFF;
 788 : FFFF;
 789 : FFFF;
 789 : FFFF;
 78A : FFFF;
 78A : FFFF;
 78B : FFFF;
 78B : FFFF;
 78C : FFFF;
 78C : FFFF;
 78D : FFFF;
 78D : FFFF;
 78E : FFFF;
 78E : FFFF;
 78F : FFFF;
 78F : FFFF;
 790 : FFFF;
 790 : FFFF;
 791 : FFFF;
 791 : FFFF;
 792 : FFFF;
 792 : FFFF;
 793 : FFFF;
 793 : FFFF;
 794 : FFFF;
 794 : FFFF;
 795 : FFFF;
 795 : FFFF;
 796 : FFFF;
 796 : FFFF;
 797 : FFFF;
 797 : FFFF;
 798 : FFFF;
 798 : FFFF;
 799 : FFFF;
 799 : FFFF;
 79A : FFFF;
 79A : FFFF;
 79B : FFFF;
 79B : FFFF;
 79C : FFFF;
 79C : FFFF;
 79D : FFFF;
 79D : FFFF;
 79E : FFFF;
 79E : FFFF;
 79F : FFFF;
 79F : FFFF;
 7A0 : FFFF;
 7A0 : FFFF;
 7A1 : FFFF;
 7A1 : FFFF;
 7A2 : FFFF;
 7A2 : FFFF;
 7A3 : FFFF;
 7A3 : FFFF;
 7A4 : FFFF;
 7A4 : FFFF;
 7A5 : FFFF;
 7A5 : FFFF;
 7A6 : FFFF;
 7A6 : FFFF;
 7A7 : FFFF;
 7A7 : FFFF;
 7A8 : FFFF;
 7A8 : FFFE;
 7A9 : FEFE;
 7A9 : FEFE;
 7AA : FEFE;
 7AA : FEFE;
 7AB : FEFE;
 7AB : FEFE;
 7AC : FEFE;
 7AC : FEFE;
 7AD : FEFC;
 7AD : FCFE;
 7AE : FEFB;
 7AE : FBFD;
 7AF : FDFD;
 7AF : FDF8;
 7B0 : F8EE;
 7B0 : EEF1;
 7B1 : F1FD;
 7B1 : FDFE;
 7B2 : FEFD;
 7B2 : FDFD;
 7B3 : FDFC;
 7B3 : FCFD;
 7B4 : FDFF;
 7B4 : FFFF;
 7B5 : FFFF;
 7B5 : FFFF;
 7B6 : FFFE;
 7B6 : FEFE;
 7B7 : FEFE;
 7B7 : FEFE;
 7B8 : FEFE;
 7B8 : FEFE;
 7B9 : FEFF;
 7B9 : FFFF;
 7BA : FFFF;
 7BA : FFFF;
 7BB : FFFF;
 7BB : FFFF;
 7BC : FFFF;
 7BC : FFFF;
 7BD : FFFF;
 7BD : FFFF;
 7BE : FFFF;
 7BE : FFFF;
 7BF : FFFF;
 7BF : FFFF;
 7C0 : FFFF;
 7C0 : FFFF;
 7C1 : FFFF;
 7C1 : FFFF;
 7C2 : FFFF;
 7C2 : FFFF;
 7C3 : FFFF;
 7C3 : FFFF;
 7C4 : FFFF;
 7C4 : FFFF;
 7C5 : FFFF;
 7C5 : FFFF;
 7C6 : FFFF;
 7C6 : FFFF;
 7C7 : FFFF;
 7C7 : FFFF;
 7C8 : FFFF;
 7C8 : FFFF;
 7C9 : FFFF;
 7C9 : FFFF;
 7CA : FFFF;
 7CA : FFFF;
 7CB : FFFF;
 7CB : FFFF;
 7CC : FFFF;
 7CC : FFFF;
 7CD : FFFF;
 7CD : FFFF;
 7CE : FFFF;
 7CE : FFFF;
 7CF : FFFF;
 7CF : FFFF;
 7D0 : FFFF;
 7D0 : FFFF;
 7D1 : FFFF;
 7D1 : FFFF;
 7D2 : FFFF;
 7D2 : FFFF;
 7D3 : FFFF;
 7D3 : FFFF;
 7D4 : FFFF;
 7D4 : FFFF;
 7D5 : FFFF;
 7D5 : FFFF;
 7D6 : FFFF;
 7D6 : FFFF;
 7D7 : FFFF;
 7D7 : FFFF;
 7D8 : FFFF;
 7D8 : FFFF;
 7D9 : FFFF;
 7D9 : FFFF;
 7DA : FFFF;
 7DA : FFFF;
 7DB : FFFF;
 7DB : FFFF;
 7DC : FFFE;
 7DC : FEFE;
 7DD : FEFC;
 7DD : FCFF;
 7DE : FFFF;
 7DE : FFFD;
 7DF : FDFE;
 7DF : FEFE;
 7E0 : FEFE;
 7E0 : FEFB;
 7E1 : FBEB;
 7E1 : EBF7;
 7E2 : F7FD;
 7E2 : FDFD;
 7E3 : FDFA;
 7E3 : FAFB;
 7E4 : FBFC;
 7E4 : FCFD;
 7E5 : FDFE;
 7E5 : FEFF;
 7E6 : FFFE;
 7E6 : FEFE;
 7E7 : FEFE;
 7E7 : FEFF;
 7E8 : FFFF;
 7E8 : FFFE;
 7E9 : FEFF;
 7E9 : FFFF;
 7EA : FFFF;
 7EA : FFFF;
 7EB : FFFF;
 7EB : FFFF;
 7EC : FFFF;
 7EC : FFFF;
 7ED : FFFF;
 7ED : FFFF;
 7EE : FFFF;
 7EE : FFFF;
 7EF : FFFF;
 7EF : FFFF;
 7F0 : FFFF;
 7F0 : FFFF;
 7F1 : FFFF;
 7F1 : FFFF;
 7F2 : FFFF;
 7F2 : FFFF;
 7F3 : FFFF;
 7F3 : FFFF;
 7F4 : FFFF;
 7F4 : FFFF;
 7F5 : FFFF;
 7F5 : FFFF;
 7F6 : FFFF;
 7F6 : FFFF;
 7F7 : FFFF;
 7F7 : FFFF;
 7F8 : FFFF;
 7F8 : FFFF;
 7F9 : FFFF;
 7F9 : FFFF;
 7FA : FFFF;
 7FA : FFFF;
 7FB : FFFF;
 7FB : FFFF;
 7FC : FFFF;
 7FC : FFFF;
 7FD : FFFF;
 7FD : FFFF;
 7FE : FFFF;
 7FE : FFFF;
 7FF : FFFF;
 7FF : FFFF;
 800 : FFFF;
 800 : FFFF;
 801 : FFFF;
 801 : FFFF;
 802 : FFFF;
 802 : FFFF;
 803 : FFFF;
 803 : FFFF;
 804 : FFFF;
 804 : FFFF;
 805 : FFFF;
 805 : FFFF;
 806 : FFFF;
 806 : FFFF;
 807 : FFFF;
 807 : FFFF;
 808 : FFFF;
 808 : FFFF;
 809 : FFFF;
 809 : FFFF;
 80A : FFFF;
 80A : FFFF;
 80B : FFFF;
 80B : FFFF;
 80C : FFFF;
 80C : FFFF;
 80D : FFFF;
 80D : FFFF;
 80E : FFFF;
 80E : FFFF;
 80F : FFFF;
 80F : FFFF;
 810 : FFFF;
 810 : FFFF;
 811 : FFFF;
 811 : FFFF;
 812 : FFFF;
 812 : FFFF;
 813 : FFFF;
 813 : FFFF;
 814 : FFFF;
 814 : FFFF;
 815 : FFFF;
 815 : FFFF;
 816 : FFFF;
 816 : FFFF;
 817 : FFFF;
 817 : FFFF;
 818 : FFFF;
 818 : FFFF;
 819 : FFFF;
 819 : FFFF;
 81A : FFFF;
 81A : FFFF;
 81B : FFFF;
 81B : FFFF;
 81C : FFFF;
 81C : FFFF;
 81D : FFFF;
 81D : FFFF;
 81E : FFFF;
 81E : FFFF;
 81F : FFFF;
 81F : FFFF;
 820 : FFFF;
 820 : FFFF;
 821 : FFFF;
 821 : FFFF;
 822 : FFFF;
 822 : FFFF;
 823 : FFFF;
 823 : FFFF;
 824 : FFFF;
 824 : FFFF;
 825 : FFFF;
 825 : FFFF;
 826 : FFFF;
 826 : FFFF;
 827 : FFFF;
 827 : FFFF;
 828 : FFFF;
 828 : FFFF;
 829 : FFFF;
 829 : FFFF;
 82A : FFFF;
 82A : FFFF;
 82B : FFFF;
 82B : FFFF;
 82C : FFFF;
 82C : FFFF;
 82D : FFFF;
 82D : FFFF;
 82E : FFFF;
 82E : FFFF;
 82F : FFFF;
 82F : FFFF;
 830 : FFFF;
 830 : FFFF;
 831 : FFFF;
 831 : FFFF;
 832 : FFFF;
 832 : FFFF;
 833 : FFFF;
 833 : FFFF;
 834 : FFFF;
 834 : FFFF;
 835 : FFFF;
 835 : FFFF;
 836 : FFFF;
 836 : FFFF;
 837 : FFFF;
 837 : FFFF;
 838 : FFFF;
 838 : FFFF;
 839 : FFFF;
 839 : FFFF;
 83A : FFFF;
 83A : FFFF;
 83B : FFFF;
 83B : FFFF;
 83C : FFFF;
 83C : FFFF;
 83D : FFFF;
 83D : FFFF;
 83E : FFFF;
 83E : FFFF;
 83F : FFFF;
 83F : FFFF;
 840 : FFFF;
 840 : FFFF;
 841 : FFFF;
 841 : FFFF;
 842 : FFFF;
 842 : FFFF;
 843 : FFFF;
 843 : FFFF;
 844 : FFFF;
 844 : FFFF;
 845 : FFFF;
 845 : FFFF;
 846 : FFFF;
 846 : FFFF;
 847 : FFFF;
 847 : FFFF;
 848 : FFFE;
 848 : FEFE;
 849 : FEFE;
 849 : FEFE;
 84A : FEFF;
 84A : FFFE;
 84B : FEFE;
 84B : FEFE;
 84C : FEFF;
 84C : FFFD;
 84D : FDFE;
 84D : FEFC;
 84E : FCFD;
 84E : FDFC;
 84F : FCF1;
 84F : F1E0;
 850 : E0E1;
 850 : E1FB;
 851 : FBFB;
 851 : FBFD;
 852 : FDFD;
 852 : FDFD;
 853 : FDFD;
 853 : FDFE;
 854 : FEFF;
 854 : FFFF;
 855 : FFFF;
 855 : FFFE;
 856 : FEFE;
 856 : FEFE;
 857 : FEFE;
 857 : FEFE;
 858 : FEFE;
 858 : FEFF;
 859 : FFFF;
 859 : FFFF;
 85A : FFFF;
 85A : FFFF;
 85B : FFFF;
 85B : FFFF;
 85C : FFFF;
 85C : FFFF;
 85D : FFFF;
 85D : FFFF;
 85E : FFFF;
 85E : FFFF;
 85F : FFFF;
 85F : FFFF;
 860 : FFFF;
 860 : FFFF;
 861 : FFFF;
 861 : FFFF;
 862 : FFFF;
 862 : FFFF;
 863 : FFFF;
 863 : FFFF;
 864 : FFFF;
 864 : FFFF;
 865 : FFFF;
 865 : FFFF;
 866 : FFFF;
 866 : FFFF;
 867 : FFFF;
 867 : FFFF;
 868 : FFFF;
 868 : FFFF;
 869 : FFFF;
 869 : FFFF;
 86A : FFFF;
 86A : FFFF;
 86B : FFFF;
 86B : FFFF;
 86C : FFFF;
 86C : FFFF;
 86D : FFFF;
 86D : FFFF;
 86E : FFFF;
 86E : FFFF;
 86F : FFFF;
 86F : FFFF;
 870 : FFFF;
 870 : FFFF;
 871 : FFFF;
 871 : FFFF;
 872 : FFFF;
 872 : FFFF;
 873 : FFFF;
 873 : FFFF;
 874 : FFFF;
 874 : FFFF;
 875 : FFFF;
 875 : FFFF;
 876 : FFFF;
 876 : FFFF;
 877 : FFFF;
 877 : FFFF;
 878 : FFFF;
 878 : FFFF;
 879 : FFFF;
 879 : FFFF;
 87A : FFFF;
 87A : FFFF;
 87B : FFFF;
 87B : FFFE;
 87C : FEFF;
 87C : FFFE;
 87D : FEFF;
 87D : FFFF;
 87E : FFFE;
 87E : FEFE;
 87F : FEFE;
 87F : FEFD;
 880 : FDF3;
 880 : F3D9;
 881 : D9EC;
 881 : ECFB;
 882 : FBFD;
 882 : FDFB;
 883 : FBFB;
 883 : FBFD;
 884 : FDFE;
 884 : FEFF;
 885 : FFFE;
 885 : FEFE;
 886 : FEFE;
 886 : FEFE;
 887 : FEFE;
 887 : FEFE;
 888 : FEFE;
 888 : FEFF;
 889 : FFFF;
 889 : FFFF;
 88A : FFFF;
 88A : FFFF;
 88B : FFFF;
 88B : FFFF;
 88C : FFFF;
 88C : FFFF;
 88D : FFFF;
 88D : FFFF;
 88E : FFFF;
 88E : FFFF;
 88F : FFFF;
 88F : FFFF;
 890 : FFFF;
 890 : FFFF;
 891 : FFFF;
 891 : FFFF;
 892 : FFFF;
 892 : FFFF;
 893 : FFFF;
 893 : FFFF;
 894 : FFFF;
 894 : FFFF;
 895 : FFFF;
 895 : FFFF;
 896 : FFFF;
 896 : FFFF;
 897 : FFFF;
 897 : FFFF;
 898 : FFFF;
 898 : FFFF;
 899 : FFFF;
 899 : FFFF;
 89A : FFFF;
 89A : FFFF;
 89B : FFFF;
 89B : FFFF;
 89C : FFFF;
 89C : FFFF;
 89D : FFFF;
 89D : FFFF;
 89E : FFFF;
 89E : FFFF;
 89F : FFFF;
 89F : FFFF;
 8A0 : FFFF;
 8A0 : FFFF;
 8A1 : FFFF;
 8A1 : FFFF;
 8A2 : FFFF;
 8A2 : FFFF;
 8A3 : FFFF;
 8A3 : FFFF;
 8A4 : FFFF;
 8A4 : FFFF;
 8A5 : FFFF;
 8A5 : FFFF;
 8A6 : FFFF;
 8A6 : FFFF;
 8A7 : FFFF;
 8A7 : FFFF;
 8A8 : FFFF;
 8A8 : FFFF;
 8A9 : FFFF;
 8A9 : FFFF;
 8AA : FFFF;
 8AA : FFFF;
 8AB : FFFF;
 8AB : FFFF;
 8AC : FFFF;
 8AC : FFFF;
 8AD : FFFF;
 8AD : FFFF;
 8AE : FFFF;
 8AE : FFFF;
 8AF : FFFF;
 8AF : FFFF;
 8B0 : FFFF;
 8B0 : FFFF;
 8B1 : FFFF;
 8B1 : FFFF;
 8B2 : FFFF;
 8B2 : FFFF;
 8B3 : FFFF;
 8B3 : FFFF;
 8B4 : FFFF;
 8B4 : FFFF;
 8B5 : FFFF;
 8B5 : FFFF;
 8B6 : FFFF;
 8B6 : FFFF;
 8B7 : FFFF;
 8B7 : FFFF;
 8B8 : FFFF;
 8B8 : FFFF;
 8B9 : FFFF;
 8B9 : FFFF;
 8BA : FFFF;
 8BA : FFFF;
 8BB : FFFF;
 8BB : FFFF;
 8BC : FFFF;
 8BC : FFFF;
 8BD : FFFF;
 8BD : FFFF;
 8BE : FFFF;
 8BE : FFFF;
 8BF : FFFF;
 8BF : FFFF;
 8C0 : FFFF;
 8C0 : FFFF;
 8C1 : FFFF;
 8C1 : FFFF;
 8C2 : FFFF;
 8C2 : FFFF;
 8C3 : FFFF;
 8C3 : FFFF;
 8C4 : FFFF;
 8C4 : FFFF;
 8C5 : FFFF;
 8C5 : FFFF;
 8C6 : FFFF;
 8C6 : FFFF;
 8C7 : FFFF;
 8C7 : FFFF;
 8C8 : FFFF;
 8C8 : FFFF;
 8C9 : FFFF;
 8C9 : FFFF;
 8CA : FFFF;
 8CA : FFFF;
 8CB : FFFF;
 8CB : FFFF;
 8CC : FFFF;
 8CC : FFFF;
 8CD : FFFF;
 8CD : FFFF;
 8CE : FFFF;
 8CE : FFFF;
 8CF : FFFF;
 8CF : FFFF;
 8D0 : FFFF;
 8D0 : FFFF;
 8D1 : FFFF;
 8D1 : FFFF;
 8D2 : FFFF;
 8D2 : FFFF;
 8D3 : FFFF;
 8D3 : FFFF;
 8D4 : FFFF;
 8D4 : FFFF;
 8D5 : FFFF;
 8D5 : FFFF;
 8D6 : FFFF;
 8D6 : FFFF;
 8D7 : FFFF;
 8D7 : FFFF;
 8D8 : FFFF;
 8D8 : FFFF;
 8D9 : FFFF;
 8D9 : FFFF;
 8DA : FFFF;
 8DA : FFFF;
 8DB : FFFF;
 8DB : FFFF;
 8DC : FFFF;
 8DC : FFFF;
 8DD : FFFF;
 8DD : FFFF;
 8DE : FFFF;
 8DE : FFFF;
 8DF : FFFF;
 8DF : FFFF;
 8E0 : FFFF;
 8E0 : FFFF;
 8E1 : FFFF;
 8E1 : FFFF;
 8E2 : FFFF;
 8E2 : FFFF;
 8E3 : FFFF;
 8E3 : FFFF;
 8E4 : FFFF;
 8E4 : FFFF;
 8E5 : FFFF;
 8E5 : FFFF;
 8E6 : FFFF;
 8E6 : FFFF;
 8E7 : FFFF;
 8E7 : FFFE;
 8E8 : FEFD;
 8E8 : FDFD;
 8E9 : FDFE;
 8E9 : FEFF;
 8EA : FFFF;
 8EA : FFFE;
 8EB : FEFF;
 8EB : FFFF;
 8EC : FFFD;
 8EC : FDFE;
 8ED : FEFD;
 8ED : FDFD;
 8EE : FDFB;
 8EE : FBE9;
 8EF : E9D3;
 8EF : D3D0;
 8F0 : D0F7;
 8F0 : F7F8;
 8F1 : F8FC;
 8F1 : FCFE;
 8F2 : FEFD;
 8F2 : FDFD;
 8F3 : FDFD;
 8F3 : FDFF;
 8F4 : FFFF;
 8F4 : FFFF;
 8F5 : FFFE;
 8F5 : FEFE;
 8F6 : FEFE;
 8F6 : FEFE;
 8F7 : FEFE;
 8F7 : FEFE;
 8F8 : FEFF;
 8F8 : FFFF;
 8F9 : FFFF;
 8F9 : FFFF;
 8FA : FFFF;
 8FA : FFFF;
 8FB : FFFF;
 8FB : FFFF;
 8FC : FFFF;
 8FC : FFFF;
 8FD : FFFF;
 8FD : FFFF;
 8FE : FFFF;
 8FE : FFFF;
 8FF : FFFF;
 8FF : FFFF;
 900 : FFFF;
 900 : FFFF;
 901 : FFFF;
 901 : FFFF;
 902 : FFFF;
 902 : FFFF;
 903 : FFFF;
 903 : FFFF;
 904 : FFFF;
 904 : FFFF;
 905 : FFFF;
 905 : FFFF;
 906 : FFFF;
 906 : FFFF;
 907 : FFFF;
 907 : FFFF;
 908 : FFFF;
 908 : FFFF;
 909 : FFFF;
 909 : FFFF;
 90A : FFFF;
 90A : FFFF;
 90B : FFFF;
 90B : FFFF;
 90C : FFFF;
 90C : FFFF;
 90D : FFFF;
 90D : FFFF;
 90E : FFFF;
 90E : FFFF;
 90F : FFFF;
 90F : FFFF;
 910 : FFFF;
 910 : FFFF;
 911 : FFFF;
 911 : FFFF;
 912 : FFFF;
 912 : FFFF;
 913 : FFFF;
 913 : FFFF;
 914 : FFFF;
 914 : FFFF;
 915 : FFFF;
 915 : FFFF;
 916 : FFFF;
 916 : FFFF;
 917 : FFFF;
 917 : FFFF;
 918 : FFFF;
 918 : FFFF;
 919 : FFFF;
 919 : FFFF;
 91A : FFFF;
 91A : FFFF;
 91B : FFFF;
 91B : FFFF;
 91C : FFFF;
 91C : FFFF;
 91D : FFFE;
 91D : FEFC;
 91E : FCFE;
 91E : FEFD;
 91F : FDF9;
 91F : F9E6;
 920 : E6CA;
 920 : CAE0;
 921 : E0F6;
 921 : F6FB;
 922 : FBFD;
 922 : FDFD;
 923 : FDFE;
 923 : FEFD;
 924 : FDFF;
 924 : FFFE;
 925 : FEFE;
 925 : FEFE;
 926 : FEFE;
 926 : FEFE;
 927 : FEFF;
 927 : FFFF;
 928 : FFFF;
 928 : FFFF;
 929 : FFFF;
 929 : FFFF;
 92A : FFFF;
 92A : FFFF;
 92B : FFFF;
 92B : FFFF;
 92C : FFFF;
 92C : FFFF;
 92D : FFFF;
 92D : FFFF;
 92E : FFFF;
 92E : FFFF;
 92F : FFFF;
 92F : FFFF;
 930 : FFFF;
 930 : FFFF;
 931 : FFFF;
 931 : FFFF;
 932 : FFFF;
 932 : FFFF;
 933 : FFFF;
 933 : FFFF;
 934 : FFFF;
 934 : FFFF;
 935 : FFFF;
 935 : FFFF;
 936 : FFFF;
 936 : FFFF;
 937 : FFFF;
 937 : FFFF;
 938 : FFFF;
 938 : FFFF;
 939 : FFFF;
 939 : FFFF;
 93A : FFFF;
 93A : FFFF;
 93B : FFFF;
 93B : FFFF;
 93C : FFFF;
 93C : FFFF;
 93D : FFFF;
 93D : FFFF;
 93E : FFFF;
 93E : FFFF;
 93F : FFFF;
 93F : FFFF;
 940 : FFFF;
 940 : FFFF;
 941 : FFFF;
 941 : FFFF;
 942 : FFFF;
 942 : FFFF;
 943 : FFFF;
 943 : FFFF;
 944 : FFFF;
 944 : FFFF;
 945 : FFFF;
 945 : FFFF;
 946 : FFFF;
 946 : FFFF;
 947 : FFFF;
 947 : FFFF;
 948 : FFFF;
 948 : FFFF;
 949 : FFFF;
 949 : FFFF;
 94A : FFFF;
 94A : FFFF;
 94B : FFFF;
 94B : FFFF;
 94C : FFFF;
 94C : FFFF;
 94D : FFFF;
 94D : FFFF;
 94E : FFFF;
 94E : FFFF;
 94F : FFFF;
 94F : FFFF;
 950 : FFFF;
 950 : FFFF;
 951 : FFFF;
 951 : FFFF;
 952 : FFFF;
 952 : FFFF;
 953 : FFFF;
 953 : FFFF;
 954 : FFFF;
 954 : FFFF;
 955 : FFFF;
 955 : FFFF;
 956 : FFFF;
 956 : FFFF;
 957 : FFFF;
 957 : FFFF;
 958 : FFFF;
 958 : FFFF;
 959 : FFFF;
 959 : FFFF;
 95A : FFFF;
 95A : FFFF;
 95B : FFFF;
 95B : FFFF;
 95C : FFFF;
 95C : FFFF;
 95D : FFFF;
 95D : FFFF;
 95E : FFFF;
 95E : FFFF;
 95F : FFFF;
 95F : FFFF;
 960 : FFFF;
 960 : FFFF;
 961 : FFFF;
 961 : FFFF;
 962 : FFFF;
 962 : FFFF;
 963 : FFFF;
 963 : FFFF;
 964 : FFFF;
 964 : FFFF;
 965 : FFFF;
 965 : FFFF;
 966 : FFFF;
 966 : FFFF;
 967 : FFFF;
 967 : FFFF;
 968 : FFFF;
 968 : FFFF;
 969 : FFFF;
 969 : FFFF;
 96A : FFFF;
 96A : FFFF;
 96B : FFFF;
 96B : FFFF;
 96C : FFFF;
 96C : FFFF;
 96D : FFFF;
 96D : FFFF;
 96E : FFFF;
 96E : FFFF;
 96F : FFFF;
 96F : FFFF;
 970 : FFFF;
 970 : FFFF;
 971 : FFFF;
 971 : FFFF;
 972 : FFFF;
 972 : FFFF;
 973 : FFFF;
 973 : FFFF;
 974 : FFFF;
 974 : FFFF;
 975 : FFFF;
 975 : FFFF;
 976 : FFFF;
 976 : FFFF;
 977 : FFFF;
 977 : FFFF;
 978 : FFFF;
 978 : FFFF;
 979 : FFFF;
 979 : FFFF;
 97A : FFFF;
 97A : FFFF;
 97B : FFFF;
 97B : FFFF;
 97C : FFFF;
 97C : FFFF;
 97D : FFFF;
 97D : FFFF;
 97E : FFFF;
 97E : FFFF;
 97F : FFFF;
 97F : FFFF;
 980 : FFFF;
 980 : FFFF;
 981 : FFFF;
 981 : FFFF;
 982 : FFFF;
 982 : FFFF;
 983 : FFFF;
 983 : FFFF;
 984 : FFFF;
 984 : FFFF;
 985 : FFFF;
 985 : FFFE;
 986 : FEFE;
 986 : FEFE;
 987 : FEFE;
 987 : FEFD;
 988 : FDFE;
 988 : FEFF;
 989 : FFFE;
 989 : FEFE;
 98A : FEFE;
 98A : FEFE;
 98B : FEFE;
 98B : FEFE;
 98C : FEFE;
 98C : FEFD;
 98D : FDFC;
 98D : FCFA;
 98E : FAE4;
 98E : E4CB;
 98F : CBC7;
 98F : C7F4;
 990 : F4F7;
 990 : F7FD;
 991 : FDFE;
 991 : FEFE;
 992 : FEFD;
 992 : FDFD;
 993 : FDFE;
 993 : FEFF;
 994 : FFFF;
 994 : FFFE;
 995 : FEFE;
 995 : FEFE;
 996 : FEFE;
 996 : FEFE;
 997 : FEFE;
 997 : FEFF;
 998 : FFFF;
 998 : FFFF;
 999 : FFFF;
 999 : FFFF;
 99A : FFFE;
 99A : FEFE;
 99B : FEFE;
 99B : FEFE;
 99C : FEFE;
 99C : FEFE;
 99D : FEFE;
 99D : FEFE;
 99E : FEFE;
 99E : FEFE;
 99F : FEFE;
 99F : FEFF;
 9A0 : FFFF;
 9A0 : FFFF;
 9A1 : FFFF;
 9A1 : FFFF;
 9A2 : FFFF;
 9A2 : FFFF;
 9A3 : FFFF;
 9A3 : FFFF;
 9A4 : FFFF;
 9A4 : FFFF;
 9A5 : FFFF;
 9A5 : FFFF;
 9A6 : FFFF;
 9A6 : FFFF;
 9A7 : FFFF;
 9A7 : FFFF;
 9A8 : FFFF;
 9A8 : FFFF;
 9A9 : FFFF;
 9A9 : FFFF;
 9AA : FFFF;
 9AA : FFFF;
 9AB : FFFF;
 9AB : FFFF;
 9AC : FFFF;
 9AC : FFFF;
 9AD : FFFF;
 9AD : FFFF;
 9AE : FFFF;
 9AE : FFFF;
 9AF : FFFF;
 9AF : FFFF;
 9B0 : FFFF;
 9B0 : FFFF;
 9B1 : FFFE;
 9B1 : FEFE;
 9B2 : FEFE;
 9B2 : FEFE;
 9B3 : FEFE;
 9B3 : FEFE;
 9B4 : FEFF;
 9B4 : FFFE;
 9B5 : FEFE;
 9B5 : FEFE;
 9B6 : FEFF;
 9B6 : FFFF;
 9B7 : FFFF;
 9B7 : FFFF;
 9B8 : FFFF;
 9B8 : FFFF;
 9B9 : FFFF;
 9B9 : FFFE;
 9BA : FEFE;
 9BA : FEFE;
 9BB : FEFF;
 9BB : FFFF;
 9BC : FFFF;
 9BC : FFFC;
 9BD : FCFA;
 9BD : FAFE;
 9BE : FEFD;
 9BE : FDF4;
 9BF : F4DC;
 9BF : DCC2;
 9C0 : C2D7;
 9C0 : D7F0;
 9C1 : F0FB;
 9C1 : FBFD;
 9C2 : FDFE;
 9C2 : FEFE;
 9C3 : FEFA;
 9C3 : FAFE;
 9C4 : FEFE;
 9C4 : FEFE;
 9C5 : FEFE;
 9C5 : FEFE;
 9C6 : FEFE;
 9C6 : FEFF;
 9C7 : FFFE;
 9C7 : FEFE;
 9C8 : FEFE;
 9C8 : FEFE;
 9C9 : FEFE;
 9C9 : FEFE;
 9CA : FEFF;
 9CA : FFFF;
 9CB : FFFF;
 9CB : FFFF;
 9CC : FFFF;
 9CC : FFFF;
 9CD : FFFF;
 9CD : FFFF;
 9CE : FFFF;
 9CE : FFFE;
 9CF : FEFE;
 9CF : FEFF;
 9D0 : FFFF;
 9D0 : FFFF;
 9D1 : FFFF;
 9D1 : FFFF;
 9D2 : FFFF;
 9D2 : FFFF;
 9D3 : FFFF;
 9D3 : FFFF;
 9D4 : FFFF;
 9D4 : FFFF;
 9D5 : FFFF;
 9D5 : FFFF;
 9D6 : FFFF;
 9D6 : FFFF;
 9D7 : FFFF;
 9D7 : FFFF;
 9D8 : FFFF;
 9D8 : FFFF;
 9D9 : FFFF;
 9D9 : FFFF;
 9DA : FFFF;
 9DA : FFFF;
 9DB : FFFF;
 9DB : FFFF;
 9DC : FFFF;
 9DC : FFFF;
 9DD : FFFF;
 9DD : FFFF;
 9DE : FFFF;
 9DE : FFFF;
 9DF : FFFF;
 9DF : FFFF;
 9E0 : FFFF;
 9E0 : FFFF;
 9E1 : FFFF;
 9E1 : FFFF;
 9E2 : FFFF;
 9E2 : FFFF;
 9E3 : FFFF;
 9E3 : FFFF;
 9E4 : FFFF;
 9E4 : FFFF;
 9E5 : FFFF;
 9E5 : FFFF;
 9E6 : FFFF;
 9E6 : FFFF;
 9E7 : FFFF;
 9E7 : FFFF;
 9E8 : FFFF;
 9E8 : FFFF;
 9E9 : FFFF;
 9E9 : FFFF;
 9EA : FFFF;
 9EA : FFFF;
 9EB : FFFF;
 9EB : FFFF;
 9EC : FFFF;
 9EC : FFFF;
 9ED : FFFF;
 9ED : FFFF;
 9EE : FFFF;
 9EE : FFFF;
 9EF : FFFF;
 9EF : FFFF;
 9F0 : FFFF;
 9F0 : FFFF;
 9F1 : FFFF;
 9F1 : FFFF;
 9F2 : FFFF;
 9F2 : FFFF;
 9F3 : FFFF;
 9F3 : FFFF;
 9F4 : FFFF;
 9F4 : FFFF;
 9F5 : FFFF;
 9F5 : FFFF;
 9F6 : FFFF;
 9F6 : FFFF;
 9F7 : FFFF;
 9F7 : FFFF;
 9F8 : FFFF;
 9F8 : FFFF;
 9F9 : FFFF;
 9F9 : FFFF;
 9FA : FFFF;
 9FA : FFFF;
 9FB : FFFF;
 9FB : FFFF;
 9FC : FFFF;
 9FC : FFFF;
 9FD : FFFF;
 9FD : FFFF;
 9FE : FFFF;
 9FE : FFFF;
 9FF : FFFF;
 9FF : FFFF;
 A00 : FFFF;
 A00 : FFFF;
 A01 : FFFF;
 A01 : FFFF;
 A02 : FFFF;
 A02 : FFFF;
 A03 : FFFF;
 A03 : FFFF;
 A04 : FFFF;
 A04 : FFFF;
 A05 : FFFF;
 A05 : FFFF;
 A06 : FFFF;
 A06 : FFFF;
 A07 : FFFF;
 A07 : FFFF;
 A08 : FFFF;
 A08 : FFFF;
 A09 : FFFF;
 A09 : FFFF;
 A0A : FFFF;
 A0A : FFFF;
 A0B : FFFF;
 A0B : FFFF;
 A0C : FFFF;
 A0C : FFFF;
 A0D : FFFF;
 A0D : FFFF;
 A0E : FFFF;
 A0E : FFFF;
 A0F : FFFF;
 A0F : FFFF;
 A10 : FFFF;
 A10 : FFFF;
 A11 : FFFF;
 A11 : FFFF;
 A12 : FFFF;
 A12 : FFFF;
 A13 : FFFF;
 A13 : FFFF;
 A14 : FFFF;
 A14 : FFFF;
 A15 : FFFF;
 A15 : FFFF;
 A16 : FFFF;
 A16 : FFFF;
 A17 : FFFF;
 A17 : FFFF;
 A18 : FFFF;
 A18 : FFFF;
 A19 : FFFF;
 A19 : FFFF;
 A1A : FFFF;
 A1A : FFFF;
 A1B : FFFF;
 A1B : FFFF;
 A1C : FFFF;
 A1C : FFFF;
 A1D : FFFF;
 A1D : FFFF;
 A1E : FFFF;
 A1E : FFFF;
 A1F : FFFF;
 A1F : FFFE;
 A20 : FEFF;
 A20 : FFFF;
 A21 : FFFF;
 A21 : FFFE;
 A22 : FEFF;
 A22 : FFFE;
 A23 : FEFF;
 A23 : FFFF;
 A24 : FFFE;
 A24 : FEFE;
 A25 : FEFD;
 A25 : FDFC;
 A26 : FCFB;
 A26 : FBFC;
 A27 : FCFE;
 A27 : FEFE;
 A28 : FEFE;
 A28 : FEFD;
 A29 : FDFC;
 A29 : FCFC;
 A2A : FCFC;
 A2A : FCFD;
 A2B : FDFE;
 A2B : FEFB;
 A2C : FBFB;
 A2C : FBFB;
 A2D : FBEE;
 A2D : EED5;
 A2E : D5CA;
 A2E : CAD1;
 A2F : D1DA;
 A2F : DAFA;
 A30 : FAFD;
 A30 : FDFD;
 A31 : FDFE;
 A31 : FEFC;
 A32 : FCF9;
 A32 : F9FE;
 A33 : FEFF;
 A33 : FFFF;
 A34 : FFFE;
 A34 : FEFD;
 A35 : FDFC;
 A35 : FCFD;
 A36 : FDFD;
 A36 : FDFF;
 A37 : FFFE;
 A37 : FEFE;
 A38 : FEFE;
 A38 : FEFF;
 A39 : FFFE;
 A39 : FEFD;
 A3A : FDFE;
 A3A : FEFC;
 A3B : FCFD;
 A3B : FDFC;
 A3C : FCFD;
 A3C : FDFD;
 A3D : FDFD;
 A3D : FDFE;
 A3E : FEFD;
 A3E : FDFE;
 A3F : FEFE;
 A3F : FEFF;
 A40 : FFFF;
 A40 : FFFF;
 A41 : FFFF;
 A41 : FFFF;
 A42 : FFFF;
 A42 : FFFF;
 A43 : FFFF;
 A43 : FFFF;
 A44 : FFFF;
 A44 : FFFF;
 A45 : FFFF;
 A45 : FFFF;
 A46 : FFFF;
 A46 : FFFF;
 A47 : FFFF;
 A47 : FFFF;
 A48 : FFFF;
 A48 : FFFF;
 A49 : FFFF;
 A49 : FFFF;
 A4A : FFFF;
 A4A : FFFF;
 A4B : FFFF;
 A4B : FFFF;
 A4C : FFFF;
 A4C : FFFF;
 A4D : FFFF;
 A4D : FFFF;
 A4E : FFFF;
 A4E : FFFF;
 A4F : FFFF;
 A4F : FFFF;
 A50 : FFFE;
 A50 : FEFE;
 A51 : FEFE;
 A51 : FEFE;
 A52 : FEFD;
 A52 : FDFD;
 A53 : FDFE;
 A53 : FEFE;
 A54 : FEFE;
 A54 : FEFE;
 A55 : FEFE;
 A55 : FEFE;
 A56 : FEFF;
 A56 : FFFF;
 A57 : FFFE;
 A57 : FEFE;
 A58 : FEFE;
 A58 : FEFE;
 A59 : FEFD;
 A59 : FDFD;
 A5A : FDFD;
 A5A : FDFE;
 A5B : FEFE;
 A5B : FEFE;
 A5C : FEFB;
 A5C : FBFB;
 A5D : FBFE;
 A5D : FEFC;
 A5E : FCE9;
 A5E : E9CD;
 A5F : CDD2;
 A5F : D2CA;
 A60 : CAE2;
 A60 : E2FA;
 A61 : FAFD;
 A61 : FDFD;
 A62 : FDFD;
 A62 : FDFC;
 A63 : FCFD;
 A63 : FDFD;
 A64 : FDFE;
 A64 : FEFE;
 A65 : FEFE;
 A65 : FEFE;
 A66 : FEFE;
 A66 : FEFF;
 A67 : FFFD;
 A67 : FDFB;
 A68 : FBFD;
 A68 : FDFD;
 A69 : FDFE;
 A69 : FEFF;
 A6A : FFFE;
 A6A : FEFE;
 A6B : FEFE;
 A6B : FEFE;
 A6C : FEFF;
 A6C : FFFF;
 A6D : FFFF;
 A6D : FFFE;
 A6E : FEFE;
 A6E : FEFE;
 A6F : FEFE;
 A6F : FEFF;
 A70 : FFFF;
 A70 : FFFF;
 A71 : FFFF;
 A71 : FFFF;
 A72 : FFFF;
 A72 : FFFF;
 A73 : FFFF;
 A73 : FFFF;
 A74 : FFFF;
 A74 : FFFF;
 A75 : FFFF;
 A75 : FFFF;
 A76 : FFFF;
 A76 : FFFF;
 A77 : FFFF;
 A77 : FFFF;
 A78 : FFFF;
 A78 : FFFF;
 A79 : FFFF;
 A79 : FFFF;
 A7A : FFFF;
 A7A : FFFF;
 A7B : FFFF;
 A7B : FFFF;
 A7C : FFFF;
 A7C : FFFF;
 A7D : FFFF;
 A7D : FFFF;
 A7E : FFFF;
 A7E : FFFF;
 A7F : FFFF;
 A7F : FFFF;
 A80 : FFFF;
 A80 : FFFF;
 A81 : FFFF;
 A81 : FFFF;
 A82 : FFFF;
 A82 : FFFF;
 A83 : FFFF;
 A83 : FFFF;
 A84 : FFFF;
 A84 : FFFF;
 A85 : FFFF;
 A85 : FFFF;
 A86 : FFFF;
 A86 : FFFF;
 A87 : FFFF;
 A87 : FFFF;
 A88 : FFFF;
 A88 : FFFF;
 A89 : FFFF;
 A89 : FFFF;
 A8A : FFFF;
 A8A : FFFF;
 A8B : FFFF;
 A8B : FFFF;
 A8C : FFFF;
 A8C : FFFF;
 A8D : FFFF;
 A8D : FFFF;
 A8E : FFFF;
 A8E : FFFF;
 A8F : FFFF;
 A8F : FFFF;
 A90 : FFFF;
 A90 : FFFF;
 A91 : FFFF;
 A91 : FFFF;
 A92 : FFFF;
 A92 : FFFF;
 A93 : FFFF;
 A93 : FFFF;
 A94 : FFFF;
 A94 : FFFF;
 A95 : FFFF;
 A95 : FFFF;
 A96 : FFFF;
 A96 : FFFF;
 A97 : FFFF;
 A97 : FFFF;
 A98 : FFFF;
 A98 : FFFF;
 A99 : FFFF;
 A99 : FFFF;
 A9A : FFFF;
 A9A : FFFF;
 A9B : FFFF;
 A9B : FFFF;
 A9C : FFFF;
 A9C : FFFF;
 A9D : FFFF;
 A9D : FFFF;
 A9E : FFFF;
 A9E : FFFF;
 A9F : FFFF;
 A9F : FFFF;
 AA0 : FFFF;
 AA0 : FFFF;
 AA1 : FFFF;
 AA1 : FFFF;
 AA2 : FFFF;
 AA2 : FFFF;
 AA3 : FFFF;
 AA3 : FFFF;
 AA4 : FFFF;
 AA4 : FFFF;
 AA5 : FFFF;
 AA5 : FFFF;
 AA6 : FFFF;
 AA6 : FFFF;
 AA7 : FFFF;
 AA7 : FFFF;
 AA8 : FFFF;
 AA8 : FFFF;
 AA9 : FFFF;
 AA9 : FFFF;
 AAA : FFFF;
 AAA : FFFF;
 AAB : FFFF;
 AAB : FFFF;
 AAC : FFFF;
 AAC : FFFF;
 AAD : FFFF;
 AAD : FFFF;
 AAE : FFFF;
 AAE : FFFF;
 AAF : FFFF;
 AAF : FFFF;
 AB0 : FFFF;
 AB0 : FFFF;
 AB1 : FFFF;
 AB1 : FFFF;
 AB2 : FFFF;
 AB2 : FFFF;
 AB3 : FFFF;
 AB3 : FFFF;
 AB4 : FFFF;
 AB4 : FFFF;
 AB5 : FFFF;
 AB5 : FFFF;
 AB6 : FFFF;
 AB6 : FFFF;
 AB7 : FFFF;
 AB7 : FFFF;
 AB8 : FFFF;
 AB8 : FFFF;
 AB9 : FFFF;
 AB9 : FFFF;
 ABA : FFFF;
 ABA : FFFF;
 ABB : FFFF;
 ABB : FFFF;
 ABC : FFFF;
 ABC : FFFF;
 ABD : FFFF;
 ABD : FFFF;
 ABE : FFFF;
 ABE : FFFF;
 ABF : FFFF;
 ABF : FFFF;
 AC0 : FFFF;
 AC0 : FFFE;
 AC1 : FEFE;
 AC1 : FEFF;
 AC2 : FFFF;
 AC2 : FFFF;
 AC3 : FFFF;
 AC3 : FFFE;
 AC4 : FEFE;
 AC4 : FEFD;
 AC5 : FDFD;
 AC5 : FDFC;
 AC6 : FCFC;
 AC6 : FCFD;
 AC7 : FDFE;
 AC7 : FEFE;
 AC8 : FEFD;
 AC8 : FDFC;
 AC9 : FCFC;
 AC9 : FCFC;
 ACA : FCFD;
 ACA : FDFE;
 ACB : FEFD;
 ACB : FDFC;
 ACC : FCF6;
 ACC : F6E6;
 ACD : E6D1;
 ACD : D1CA;
 ACE : CACF;
 ACE : CFD2;
 ACF : D2EF;
 ACF : EFFB;
 AD0 : FBFE;
 AD0 : FEFD;
 AD1 : FDFC;
 AD1 : FCFC;
 AD2 : FCFE;
 AD2 : FEFE;
 AD3 : FEFF;
 AD3 : FFFE;
 AD4 : FEFD;
 AD4 : FDFD;
 AD5 : FDFE;
 AD5 : FEFE;
 AD6 : FEFE;
 AD6 : FEFF;
 AD7 : FFFE;
 AD7 : FEFF;
 AD8 : FFFF;
 AD8 : FFFE;
 AD9 : FEFD;
 AD9 : FDFD;
 ADA : FDFD;
 ADA : FDFD;
 ADB : FDFE;
 ADB : FEFD;
 ADC : FDFE;
 ADC : FEFE;
 ADD : FEFE;
 ADD : FEFE;
 ADE : FEFF;
 ADE : FFFF;
 ADF : FFFF;
 ADF : FFFF;
 AE0 : FFFF;
 AE0 : FFFF;
 AE1 : FFFF;
 AE1 : FFFF;
 AE2 : FFFF;
 AE2 : FFFF;
 AE3 : FFFF;
 AE3 : FFFF;
 AE4 : FFFF;
 AE4 : FFFF;
 AE5 : FFFF;
 AE5 : FFFF;
 AE6 : FFFF;
 AE6 : FFFF;
 AE7 : FFFF;
 AE7 : FFFF;
 AE8 : FFFF;
 AE8 : FFFF;
 AE9 : FFFF;
 AE9 : FFFF;
 AEA : FFFF;
 AEA : FFFF;
 AEB : FFFF;
 AEB : FFFF;
 AEC : FFFF;
 AEC : FFFF;
 AED : FFFF;
 AED : FFFF;
 AEE : FFFF;
 AEE : FFFF;
 AEF : FFFF;
 AEF : FFFF;
 AF0 : FFFF;
 AF0 : FFFE;
 AF1 : FEFE;
 AF1 : FEFE;
 AF2 : FEFE;
 AF2 : FEFE;
 AF3 : FEFE;
 AF3 : FEFE;
 AF4 : FEFE;
 AF4 : FEFE;
 AF5 : FEFE;
 AF5 : FEFE;
 AF6 : FEFF;
 AF6 : FFFE;
 AF7 : FEFE;
 AF7 : FEFE;
 AF8 : FEFE;
 AF8 : FEFD;
 AF9 : FDFD;
 AF9 : FDFD;
 AFA : FDFE;
 AFA : FEFE;
 AFB : FEFE;
 AFB : FEFB;
 AFC : FBFD;
 AFC : FDFD;
 AFD : FDF6;
 AFD : F6E1;
 AFE : E1CB;
 AFE : CBD0;
 AFF : D0CB;
 AFF : CBDA;
 B00 : DAF3;
 B00 : F3FC;
 B01 : FCFE;
 B01 : FEFD;
 B02 : FDFC;
 B02 : FCFD;
 B03 : FDFE;
 B03 : FEFE;
 B04 : FEFE;
 B04 : FEFE;
 B05 : FEFE;
 B05 : FEFF;
 B06 : FFFF;
 B06 : FFFD;
 B07 : FDFD;
 B07 : FDFD;
 B08 : FDFE;
 B08 : FEFE;
 B09 : FEFF;
 B09 : FFFE;
 B0A : FEFE;
 B0A : FEFE;
 B0B : FEFE;
 B0B : FEFE;
 B0C : FEFF;
 B0C : FFFF;
 B0D : FFFF;
 B0D : FFFE;
 B0E : FEFE;
 B0E : FEFF;
 B0F : FFFF;
 B0F : FFFF;
 B10 : FFFF;
 B10 : FFFF;
 B11 : FFFF;
 B11 : FFFF;
 B12 : FFFF;
 B12 : FFFF;
 B13 : FFFF;
 B13 : FFFF;
 B14 : FFFF;
 B14 : FFFF;
 B15 : FFFF;
 B15 : FFFF;
 B16 : FFFF;
 B16 : FFFF;
 B17 : FFFF;
 B17 : FFFF;
 B18 : FFFF;
 B18 : FFFF;
 B19 : FFFF;
 B19 : FFFF;
 B1A : FFFF;
 B1A : FFFF;
 B1B : FFFF;
 B1B : FFFF;
 B1C : FFFF;
 B1C : FFFF;
 B1D : FFFF;
 B1D : FFFF;
 B1E : FFFF;
 B1E : FFFF;
 B1F : FFFF;
 B1F : FFFF;
 B20 : FFFF;
 B20 : FFFF;
 B21 : FFFF;
 B21 : FFFF;
 B22 : FFFF;
 B22 : FFFF;
 B23 : FFFF;
 B23 : FFFF;
 B24 : FFFF;
 B24 : FFFF;
 B25 : FFFF;
 B25 : FFFF;
 B26 : FFFF;
 B26 : FFFF;
 B27 : FFFF;
 B27 : FFFF;
 B28 : FFFF;
 B28 : FFFF;
 B29 : FFFF;
 B29 : FFFF;
 B2A : FFFF;
 B2A : FFFF;
 B2B : FFFF;
 B2B : FFFF;
 B2C : FFFF;
 B2C : FFFF;
 B2D : FFFF;
 B2D : FFFF;
 B2E : FFFF;
 B2E : FFFF;
 B2F : FFFF;
 B2F : FFFF;
 B30 : FFFF;
 B30 : FFFF;
 B31 : FFFF;
 B31 : FFFF;
 B32 : FFFF;
 B32 : FFFF;
 B33 : FFFF;
 B33 : FFFF;
 B34 : FFFF;
 B34 : FFFF;
 B35 : FFFF;
 B35 : FFFF;
 B36 : FFFF;
 B36 : FFFF;
 B37 : FFFF;
 B37 : FFFF;
 B38 : FFFF;
 B38 : FFFF;
 B39 : FFFF;
 B39 : FFFF;
 B3A : FFFF;
 B3A : FFFF;
 B3B : FFFF;
 B3B : FFFF;
 B3C : FFFF;
 B3C : FFFF;
 B3D : FFFF;
 B3D : FFFF;
 B3E : FFFF;
 B3E : FFFF;
 B3F : FFFF;
 B3F : FFFF;
 B40 : FFFF;
 B40 : FFFF;
 B41 : FFFF;
 B41 : FFFF;
 B42 : FFFF;
 B42 : FFFF;
 B43 : FFFF;
 B43 : FFFF;
 B44 : FFFF;
 B44 : FFFF;
 B45 : FFFF;
 B45 : FFFF;
 B46 : FFFF;
 B46 : FFFF;
 B47 : FFFF;
 B47 : FFFF;
 B48 : FFFF;
 B48 : FFFF;
 B49 : FFFF;
 B49 : FFFF;
 B4A : FFFF;
 B4A : FFFF;
 B4B : FFFF;
 B4B : FFFF;
 B4C : FFFF;
 B4C : FFFF;
 B4D : FFFF;
 B4D : FFFF;
 B4E : FFFF;
 B4E : FFFF;
 B4F : FFFF;
 B4F : FFFF;
 B50 : FFFF;
 B50 : FFFF;
 B51 : FFFF;
 B51 : FFFF;
 B52 : FFFF;
 B52 : FFFF;
 B53 : FFFF;
 B53 : FFFF;
 B54 : FFFF;
 B54 : FFFF;
 B55 : FFFF;
 B55 : FFFF;
 B56 : FFFF;
 B56 : FFFF;
 B57 : FFFF;
 B57 : FFFF;
 B58 : FFFF;
 B58 : FFFF;
 B59 : FFFF;
 B59 : FFFF;
 B5A : FFFF;
 B5A : FFFF;
 B5B : FFFF;
 B5B : FFFF;
 B5C : FFFF;
 B5C : FFFF;
 B5D : FFFF;
 B5D : FFFF;
 B5E : FFFE;
 B5E : FEFE;
 B5F : FEFE;
 B5F : FEFE;
 B60 : FEFE;
 B60 : FEFE;
 B61 : FEFF;
 B61 : FFFF;
 B62 : FFFF;
 B62 : FFFF;
 B63 : FFFF;
 B63 : FFFF;
 B64 : FFFF;
 B64 : FFFF;
 B65 : FFFF;
 B65 : FFFE;
 B66 : FEFB;
 B66 : FBFB;
 B67 : FBFC;
 B67 : FCFD;
 B68 : FDFE;
 B68 : FEFD;
 B69 : FDFC;
 B69 : FCFB;
 B6A : FBFB;
 B6A : FBFD;
 B6B : FDFB;
 B6B : FBED;
 B6C : EDD9;
 B6C : D9CB;
 B6D : CBC9;
 B6D : C9CD;
 B6E : CDCB;
 B6E : CBDF;
 B6F : DFF8;
 B6F : F8FC;
 B70 : FCFC;
 B70 : FCFE;
 B71 : FEFE;
 B71 : FEFD;
 B72 : FDFE;
 B72 : FEFE;
 B73 : FEFF;
 B73 : FFFE;
 B74 : FEFE;
 B74 : FEFF;
 B75 : FFFE;
 B75 : FEFE;
 B76 : FEFE;
 B76 : FEFE;
 B77 : FEFE;
 B77 : FEFE;
 B78 : FEFE;
 B78 : FEFE;
 B79 : FEFE;
 B79 : FEFE;
 B7A : FEFE;
 B7A : FEFE;
 B7B : FEFE;
 B7B : FEFE;
 B7C : FEFE;
 B7C : FEFE;
 B7D : FEFE;
 B7D : FEFE;
 B7E : FEFF;
 B7E : FFFF;
 B7F : FFFF;
 B7F : FFFF;
 B80 : FFFF;
 B80 : FFFF;
 B81 : FFFF;
 B81 : FFFF;
 B82 : FFFF;
 B82 : FFFF;
 B83 : FFFF;
 B83 : FFFF;
 B84 : FFFF;
 B84 : FFFF;
 B85 : FFFF;
 B85 : FFFF;
 B86 : FFFF;
 B86 : FFFF;
 B87 : FFFF;
 B87 : FFFF;
 B88 : FFFF;
 B88 : FFFF;
 B89 : FFFF;
 B89 : FFFF;
 B8A : FFFF;
 B8A : FFFF;
 B8B : FFFF;
 B8B : FFFF;
 B8C : FFFF;
 B8C : FFFF;
 B8D : FFFF;
 B8D : FFFF;
 B8E : FFFE;
 B8E : FEFE;
 B8F : FEFE;
 B8F : FEFE;
 B90 : FEFE;
 B90 : FEFE;
 B91 : FEFE;
 B91 : FEFE;
 B92 : FEFE;
 B92 : FEFF;
 B93 : FFFE;
 B93 : FEFE;
 B94 : FEFE;
 B94 : FEFE;
 B95 : FEFE;
 B95 : FEFE;
 B96 : FEFD;
 B96 : FDFD;
 B97 : FDFD;
 B97 : FDFD;
 B98 : FDFB;
 B98 : FBFB;
 B99 : FBFD;
 B99 : FDFE;
 B9A : FEFE;
 B9A : FEFD;
 B9B : FDFE;
 B9B : FEFD;
 B9C : FDFA;
 B9C : FAEA;
 B9D : EAD5;
 B9D : D5C9;
 B9E : C9CD;
 B9E : CDCC;
 B9F : CCD0;
 B9F : D0E4;
 BA0 : E4FC;
 BA0 : FCFE;
 BA1 : FEFC;
 BA1 : FCFD;
 BA2 : FDFE;
 BA2 : FEFD;
 BA3 : FDFC;
 BA3 : FCFB;
 BA4 : FBFB;
 BA4 : FBFB;
 BA5 : FBFC;
 BA5 : FCFE;
 BA6 : FEFE;
 BA6 : FEFE;
 BA7 : FEFF;
 BA7 : FFFF;
 BA8 : FFFF;
 BA8 : FFFF;
 BA9 : FFFF;
 BA9 : FFFF;
 BAA : FFFF;
 BAA : FFFF;
 BAB : FFFF;
 BAB : FFFF;
 BAC : FFFF;
 BAC : FFFF;
 BAD : FFFF;
 BAD : FFFF;
 BAE : FFFF;
 BAE : FFFF;
 BAF : FFFF;
 BAF : FFFF;
 BB0 : FFFF;
 BB0 : FFFF;
 BB1 : FFFF;
 BB1 : FFFF;
 BB2 : FFFF;
 BB2 : FFFF;
 BB3 : FFFF;
 BB3 : FFFF;
 BB4 : FFFF;
 BB4 : FFFF;
 BB5 : FFFF;
 BB5 : FFFF;
 BB6 : FFFF;
 BB6 : FFFF;
 BB7 : FFFF;
 BB7 : FFFF;
 BB8 : FFFF;
 BB8 : FFFF;
 BB9 : FFFF;
 BB9 : FFFF;
 BBA : FFFF;
 BBA : FFFF;
 BBB : FFFF;
 BBB : FFFF;
 BBC : FFFF;
 BBC : FFFF;
 BBD : FFFF;
 BBD : FFFF;
 BBE : FFFF;
 BBE : FFFF;
 BBF : FFFF;
 BBF : FFFF;
 BC0 : FFFF;
 BC0 : FFFF;
 BC1 : FFFF;
 BC1 : FFFF;
 BC2 : FFFF;
 BC2 : FFFF;
 BC3 : FFFF;
 BC3 : FFFF;
 BC4 : FFFF;
 BC4 : FFFF;
 BC5 : FFFF;
 BC5 : FFFF;
 BC6 : FFFF;
 BC6 : FFFF;
 BC7 : FFFF;
 BC7 : FFFF;
 BC8 : FFFF;
 BC8 : FFFF;
 BC9 : FFFF;
 BC9 : FFFF;
 BCA : FFFF;
 BCA : FFFF;
 BCB : FFFF;
 BCB : FFFF;
 BCC : FFFF;
 BCC : FFFF;
 BCD : FFFF;
 BCD : FFFF;
 BCE : FFFF;
 BCE : FFFF;
 BCF : FFFF;
 BCF : FFFF;
 BD0 : FFFF;
 BD0 : FFFF;
 BD1 : FFFF;
 BD1 : FFFF;
 BD2 : FFFF;
 BD2 : FFFF;
 BD3 : FFFF;
 BD3 : FFFF;
 BD4 : FFFF;
 BD4 : FFFF;
 BD5 : FFFF;
 BD5 : FFFF;
 BD6 : FFFF;
 BD6 : FFFF;
 BD7 : FFFF;
 BD7 : FFFF;
 BD8 : FFFF;
 BD8 : FFFF;
 BD9 : FFFF;
 BD9 : FFFF;
 BDA : FFFF;
 BDA : FFFF;
 BDB : FFFF;
 BDB : FFFF;
 BDC : FFFF;
 BDC : FFFF;
 BDD : FFFF;
 BDD : FFFF;
 BDE : FFFF;
 BDE : FFFF;
 BDF : FFFF;
 BDF : FFFF;
 BE0 : FFFF;
 BE0 : FFFF;
 BE1 : FFFF;
 BE1 : FFFF;
 BE2 : FFFF;
 BE2 : FFFF;
 BE3 : FFFF;
 BE3 : FFFF;
 BE4 : FFFF;
 BE4 : FFFF;
 BE5 : FFFF;
 BE5 : FFFF;
 BE6 : FFFF;
 BE6 : FFFF;
 BE7 : FFFF;
 BE7 : FFFF;
 BE8 : FFFF;
 BE8 : FFFF;
 BE9 : FFFF;
 BE9 : FFFF;
 BEA : FFFF;
 BEA : FFFF;
 BEB : FFFF;
 BEB : FFFF;
 BEC : FFFF;
 BEC : FFFF;
 BED : FFFF;
 BED : FFFF;
 BEE : FFFF;
 BEE : FFFF;
 BEF : FFFF;
 BEF : FFFF;
 BF0 : FFFF;
 BF0 : FFFF;
 BF1 : FFFF;
 BF1 : FFFF;
 BF2 : FFFF;
 BF2 : FFFF;
 BF3 : FFFF;
 BF3 : FFFF;
 BF4 : FFFF;
 BF4 : FFFF;
 BF5 : FFFF;
 BF5 : FFFF;
 BF6 : FFFF;
 BF6 : FFFF;
 BF7 : FFFF;
 BF7 : FFFF;
 BF8 : FFFF;
 BF8 : FFFF;
 BF9 : FFFF;
 BF9 : FFFF;
 BFA : FFFF;
 BFA : FFFF;
 BFB : FFFF;
 BFB : FFFF;
 BFC : FFFF;
 BFC : FFFF;
 BFD : FFFF;
 BFD : FFFE;
 BFE : FEFE;
 BFE : FEFE;
 BFF : FEFE;
 BFF : FEFF;
 C00 : FFFF;
 C00 : FFFF;
 C01 : FFFE;
 C01 : FEFE;
 C02 : FEFE;
 C02 : FEFF;
 C03 : FFFF;
 C03 : FFFF;
 C04 : FFFE;
 C04 : FEFE;
 C05 : FEFF;
 C05 : FFFB;
 C06 : FBFB;
 C06 : FBFC;
 C07 : FCFD;
 C07 : FDFD;
 C08 : FDFD;
 C08 : FDFA;
 C09 : FAFA;
 C09 : FAF9;
 C0A : F9FC;
 C0A : FCF9;
 C0B : F9E5;
 C0B : E5CD;
 C0C : CDC7;
 C0C : C7CA;
 C0D : CACE;
 C0D : CEC7;
 C0E : C7D2;
 C0E : D2F0;
 C0F : F0FB;
 C0F : FBFB;
 C10 : FBFE;
 C10 : FEFE;
 C11 : FEFC;
 C11 : FCFE;
 C12 : FEFE;
 C12 : FEFE;
 C13 : FEFF;
 C13 : FFFF;
 C14 : FFFE;
 C14 : FEFE;
 C15 : FEFE;
 C15 : FEFE;
 C16 : FEFD;
 C16 : FDFD;
[...]
 92BE : FEFE;
 92BE : FEFE;
 92BF : FEFE;
 92BF : FEFE;
 92C0 : FEFE;
 92C0 : FEFE;
 92C1 : FEFE;
 92C1 : FEFF;
 92C2 : FFFE;
 92C2 : FEFE;
 92C3 : FEFE;
 92C3 : FEFE;
 92C4 : FEFF;
 92C4 : FFFF;
 92C5 : FFFF;
 92C5 : FFFF;
 92C6 : FFFF;
 92C6 : FFFF;
 92C7 : FFFF;
 92C7 : FFFF;
 92C8 : FFFF;
 92C8 : FFFF;
 92C9 : FFFF;
 92C9 : FFFF;
 92CA : FFFF;
 92CA : FFFF;
 92CB : FFFF;
 92CB : FFFF;
 92CC : FFFF;
 92CC : FFFF;
 92CD : FFFF;
 92CD : FFFF;
 92CE : FFFF;
 92CE : FFFF;
 92CF : FFFF;
 92CF : FFFF;
 92D0 : FFFF;
 92D0 : FFFF;
 92D1 : FFFF;
 92D1 : FFFF;
 92D2 : FFFF;
 92D2 : FFFF;
 92D3 : FFFF;
 92D3 : FFFF;
 92D4 : FFFF;
 92D4 : FFFF;
 92D5 : FFFF;
 92D5 : FFFF;
 92D6 : FFFF;
 92D6 : FFFF;
 92D7 : FFFF;
 92D7 : FFFF;
 92D8 : FFFF;
 92D8 : FFFF;
 92D9 : FFFF;
 92D9 : FFFF;
 92DA : FFFF;
 92DA : FFFF;
 92DB : FFFF;
 92DB : FFFF;
 92DC : FFFF;
 92DC : FFFF;
 92DD : FFFF;
 92DD : FFFF;
 92DE : FFFF;
 92DE : FFFF;
 92DF : FFFF;
 92DF : FFFF;
 92E0 : FFFF;
 92E0 : FFFF;
 92E1 : FFFF;
 92E1 : FFFF;
 92E2 : FFFF;
 92E2 : FFFF;
 92E3 : FFFF;
 92E3 : FFFF;
 92E4 : FFFF;
 92E4 : FFFF;
 92E5 : FFFF;
 92E5 : FFFF;
 92E6 : FFFF;
 92E6 : FFFF;
 92E7 : FFFF;
 92E7 : FFFF;
 92E8 : FFFF;
 92E8 : FFFF;
 92E9 : FFFF;
 92E9 : FFFF;
 92EA : FFFF;
 92EA : FFFF;
 92EB : FFFF;
 92EB : FFFF;
 92EC : FFFF;
 92EC : FFFF;
 92ED : FFFF;
 92ED : FFFF;
 92EE : FFFF;
 92EE : FFFF;
 92EF : FFFF;
 92EF : FFFF;
 92F0 : FFFF;
 92F0 : FFFF;
 92F1 : FFFF;
 92F1 : FFFF;
 92F2 : FFFF;
 92F2 : FFFF;
 92F3 : FFFF;
 92F3 : FFFF;
 92F4 : FFFF;
 92F4 : FFFF;
 92F5 : FFFF;
 92F5 : FFFF;
 92F6 : FFFF;
 92F6 : FFFF;
 92F7 : FFFF;
 92F7 : FFFF;
 92F8 : FFFF;
 92F8 : FFFF;
 92F9 : FFFF;
 92F9 : FFFF;
 92FA : FFFF;
 92FA : FFFF;
 92FB : FFFF;
 92FB : FFFF;
 92FC : FFFF;
 92FC : FFFF;
 92FD : FFFF;
 92FD : FFFF;
 92FE : FFFF;
 92FE : FFFF;
 92FF : FFFF;
 92FF : FFFF;
 9300 : FFFF;
 9300 : FFFF;
 9301 : FFFF;
 9301 : FFFF;
 9302 : FFFF;
 9302 : FFFF;
 9303 : FFFF;
 9303 : FFFF;
 9304 : FFFF;
 9304 : FFFF;
 9305 : FFFF;
 9305 : FFFF;
 9306 : FFFF;
 9306 : FFFF;
 9307 : FFFF;
 9307 : FFFF;
 9308 : FFFF;
 9308 : FFFF;
 9309 : FFFF;
 9309 : FFFF;
 930A : FFFF;
 930A : FFFF;
 930B : FFFF;
 930B : FFFF;
 930C : FFFF;
 930C : FFFF;
 930D : FFFF;
 930D : FFFF;
 930E : FFFF;
 930E : FFFF;
 930F : FFFF;
 930F : FFFF;
 9310 : FFFF;
 9310 : FFFF;
 9311 : FFFF;
 9311 : FFFF;
 9312 : FFFF;
 9312 : FFFF;
 9313 : FFFF;
 9313 : FFFF;
 9314 : FFFF;
 9314 : FFFF;
 9315 : FFFF;
 9315 : FFFF;
 9316 : FFFF;
 9316 : FFFF;
 9317 : FFFF;
 9317 : FFFF;
 9318 : FFFF;
 9318 : FFFF;
 9319 : FFFF;
 9319 : FFFF;
 931A : FFFF;
 931A : FFFF;
 931B : FFFF;
 931B : FFFF;
 931C : FFFF;
 931C : FFFF;
 931D : FFFF;
 931D : FFFF;
 931E : FFFF;
 931E : FFFF;
 931F : FFFF;
 931F : FFFF;
 9320 : FFFF;
 9320 : FFFF;
 9321 : FFFF;
 9321 : FFFF;
 9322 : FFFF;
 9322 : FFFF;
 9323 : FFFF;
 9323 : FFFF;
 9324 : FFFF;
 9324 : FFFF;
 9325 : FFFF;
 9325 : FFFF;
 9326 : FFFF;
 9326 : FFFF;
 9327 : FFFF;
 9327 : FFFF;
 9328 : FFFF;
 9328 : FFFF;
 9329 : FFFF;
 9329 : FFFF;
 932A : FFFF;
 932A : FFFF;
 932B : FFFF;
 932B : FFFF;
 932C : FFFF;
 932C : FFFF;
 932D : FFFF;
 932D : FFFF;
 932E : FFFF;
 932E : FFFF;
 932F : FFFF;
 932F : FFFF;
 9330 : FFFF;
 9330 : FFFF;
 9331 : FFFF;
 9331 : FFFF;
 9332 : FFFF;
 9332 : FFFF;
 9333 : FFFF;
 9333 : FFFF;
 9334 : FFFF;
 9334 : FFFF;
 9335 : FFFF;
 9335 : FFFF;
 9336 : FFFF;
 9336 : FFFF;
 9337 : FFFF;
 9337 : FFFF;
 9338 : FFFF;
 9338 : FFFF;
 9339 : FFFF;
 9339 : FFFF;
 933A : FFFF;
 933A : FFFF;
 933B : FFFF;
 933B : FFFF;
 933C : FFFF;
 933C : FFFF;
 933D : FFFF;
 933D : FFFF;
 933E : FFFF;
 933E : FFFF;
 933F : FFFF;
 933F : FFFF;
 9340 : FFFF;
 9340 : FFFF;
 9341 : FFFF;
 9341 : FFFF;
 9342 : FFFF;
 9342 : FFFF;
 9343 : FFFF;
 9343 : FFFF;
 9344 : FFFF;
 9344 : FFFF;
 9345 : FFFF;
 9345 : FFFF;
 9346 : FFFF;
 9346 : FFFF;
 9347 : FFFF;
 9347 : FFFF;
 9348 : FFFF;
 9348 : FFFF;
 9349 : FFFF;
 9349 : FFFE;
 934A : FEFE;
 934A : FEFE;
 934B : FEFF;
 934B : FFFF;
 934C : FFFF;
 934C : FFFF;
 934D : FFFF;
 934D : FFFF;
 934E : FFFF;
 934E : FFFF;
 934F : FFFF;
 934F : FFFF;
 9350 : FFFF;
 9350 : FFFF;
 9351 : FFFE;
 9351 : FEFE;
 9352 : FEFE;
 9352 : FEFE;
 9353 : FEFE;
 9353 : FEFE;
 9354 : FEFE;
 9354 : FEFE;
 9355 : FEFE;
 9355 : FEFE;
 9356 : FEFE;
 9356 : FEFE;
 9357 : FEFE;
 9357 : FEFE;
 9358 : FEFE;
 9358 : FEFE;
 9359 : FEFE;
 9359 : FEFF;
 935A : FFFF;
 935A : FFFF;
 935B : FFFF;
 935B : FFFF;
 935C : FFFF;
 935C : FFFF;
 935D : FFFF;
 935D : FFFF;
 935E : FFFF;
 935E : FFFF;
 935F : FFFF;
 935F : FFFF;
 9360 : FFFE;
 9360 : FEFE;
 9361 : FEFE;
 9361 : FEFE;
 9362 : FEFE;
 9362 : FEFE;
 9363 : FEFE;
 9363 : FEFE;
 9364 : FEFE;
 9364 : FEFE;
 9365 : FEFE;
 9365 : FEFF;
 9366 : FFFF;
 9366 : FFFE;
 9367 : FEFF;
 9367 : FFFE;
 9368 : FEFE;
 9368 : FEFE;
 9369 : FEFF;
 9369 : FFFF;
 936A : FFFF;
 936A : FFFF;
 936B : FFFF;
 936B : FFFF;
 936C : FFFF;
 936C : FFFF;
 936D : FFFF;
 936D : FFFF;
 936E : FFFF;
 936E : FFFF;
 936F : FFFF;
 936F : FFFF;
 9370 : FFFF;
 9370 : FFFF;
 9371 : FFFF;
 9371 : FFFF;
 9372 : FFFF;
 9372 : FFFF;
 9373 : FFFF;
 9373 : FFFF;
 9374 : FFFF;
 9374 : FFFF;
 9375 : FFFF;
 9375 : FFFF;
 9376 : FFFF;
 9376 : FFFF;
 9377 : FFFF;
 9377 : FFFF;
 9378 : FFFF;
 9378 : FFFF;
 9379 : FFFF;
 9379 : FFFF;
 937A : FFFF;
 937A : FFFF;
 937B : FFFF;
 937B : FFFF;
 937C : FFFF;
 937C : FFFF;
 937D : FFFF;
 937D : FFFF;
 937E : FFFF;
 937E : FFFF;
 937F : FFFF;
 937F : FFFF;
 9380 : FFFF;
 9380 : FFFF;
 9381 : FFFF;
 9381 : FFFF;
 9382 : FFFF;
 9382 : FFFF;
 9383 : FFFF;
 9383 : FFFF;
 9384 : FFFF;
 9384 : FFFF;
 9385 : FFFF;
 9385 : FFFF;
 9386 : FFFF;
 9386 : FFFF;
 9387 : FFFF;
 9387 : FFFF;
 9388 : FFFF;
 9388 : FFFF;
 9389 : FFFF;
 9389 : FFFF;
 938A : FFFF;
 938A : FFFF;
 938B : FFFF;
 938B : FFFF;
 938C : FFFF;
 938C : FFFF;
 938D : FFFF;
 938D : FFFF;
 938E : FFFF;
 938E : FFFF;
 938F : FFFF;
 938F : FFFF;
 9390 : FFFF;
 9390 : FFFF;
 9391 : FFFF;
 9391 : FFFF;
 9392 : FFFF;
 9392 : FFFF;
 9393 : FFFF;
 9393 : FFFF;
 9394 : FFFF;
 9394 : FFFF;
 9395 : FFFF;
 9395 : FFFF;
 9396 : FFFF;
 9396 : FFFF;
 9397 : FFFF;
 9397 : FFFF;
 9398 : FFFF;
 9398 : FFFF;
 9399 : FFFF;
 9399 : FFFF;
 939A : FFFF;
 939A : FFFF;
 939B : FFFF;
 939B : FFFF;
 939C : FFFF;
 939C : FFFF;
 939D : FFFF;
 939D : FFFF;
 939E : FFFF;
 939E : FFFF;
 939F : FFFF;
 939F : FFFF;
 93A0 : FFFF;
 93A0 : FFFF;
 93A1 : FFFF;
 93A1 : FFFF;
 93A2 : FFFF;
 93A2 : FFFF;
 93A3 : FFFF;
 93A3 : FFFF;
 93A4 : FFFF;
 93A4 : FFFF;
 93A5 : FFFF;
 93A5 : FFFF;
 93A6 : FFFF;
 93A6 : FFFF;
 93A7 : FFFF;
 93A7 : FFFF;
 93A8 : FFFF;
 93A8 : FFFF;
 93A9 : FFFF;
 93A9 : FFFF;
 93AA : FFFF;
 93AA : FFFF;
 93AB : FFFF;
 93AB : FFFF;
 93AC : FFFF;
 93AC : FFFF;
 93AD : FFFF;
 93AD : FFFF;
 93AE : FFFF;
 93AE : FFFF;
 93AF : FFFF;
 93AF : FFFF;
 93B0 : FFFF;
 93B0 : FFFF;
 93B1 : FFFF;
 93B1 : FFFF;
 93B2 : FFFF;
 93B2 : FFFF;
 93B3 : FFFF;
 93B3 : FFFF;
 93B4 : FFFF;
 93B4 : FFFF;
 93B5 : FFFF;
 93B5 : FFFF;
 93B6 : FFFF;
 93B6 : FFFF;
 93B7 : FFFF;
 93B7 : FFFF;
 93B8 : FFFF;
 93B8 : FFFF;
 93B9 : FFFF;
 93B9 : FFFF;
 93BA : FFFF;
 93BA : FFFF;
 93BB : FFFF;
 93BB : FFFF;
 93BC : FFFF;
 93BC : FFFF;
 93BD : FFFF;
 93BD : FFFF;
 93BE : FFFF;
 93BE : FFFF;
 93BF : FFFF;
 93BF : FFFF;
 93C0 : FFFF;
 93C0 : FFFF;
 93C1 : FFFF;
 93C1 : FFFF;
 93C2 : FFFF;
 93C2 : FFFF;
 93C3 : FFFF;
 93C3 : FFFF;
 93C4 : FFFF;
 93C4 : FFFF;
 93C5 : FFFF;
 93C5 : FFFF;
 93C6 : FFFF;
 93C6 : FFFF;
 93C7 : FFFF;
 93C7 : FFFF;
 93C8 : FFFF;
 93C8 : FFFF;
 93C9 : FFFF;
 93C9 : FFFF;
 93CA : FFFF;
 93CA : FFFF;
 93CB : FFFF;
 93CB : FFFF;
 93CC : FFFF;
 93CC : FFFF;
 93CD : FFFF;
 93CD : FFFF;
 93CE : FFFF;
 93CE : FFFF;
 93CF : FFFF;
 93CF : FFFF;
 93D0 : FFFF;
 93D0 : FFFF;
 93D1 : FFFF;
 93D1 : FFFF;
 93D2 : FFFF;
 93D2 : FFFF;
 93D3 : FFFF;
 93D3 : FFFF;
 93D4 : FFFF;
 93D4 : FFFF;
 93D5 : FFFF;
 93D5 : FFFF;
 93D6 : FFFF;
 93D6 : FFFF;
 93D7 : FFFF;
 93D7 : FFFF;
 93D8 : FFFF;
 93D8 : FFFF;
 93D9 : FFFF;
 93D9 : FFFF;
 93DA : FFFF;
 93DA : FFFF;
 93DB : FFFF;
 93DB : FFFF;
 93DC : FFFF;
 93DC : FFFF;
 93DD : FFFF;
 93DD : FFFF;
 93DE : FFFF;
 93DE : FFFF;
 93DF : FFFF;
 93DF : FFFF;
 93E0 : FFFF;
 93E0 : FFFF;
 93E1 : FFFF;
 93E1 : FFFF;
 93E2 : FFFF;
 93E2 : FFFF;
 93E3 : FFFF;
 93E3 : FFFF;
 93E4 : FFFF;
 93E4 : FFFF;
 93E5 : FFFF;
 93E5 : FFFF;
 93E6 : FFFF;
 93E6 : FFFF;
 93E7 : FFFF;
 93E7 : FFFF;
 93E8 : FFFF;
 93E8 : FFFF;
 93E9 : FFFE;
 93E9 : FEFE;
 93EA : FEFF;
 93EA : FFFF;
 93EB : FFFF;
 93EB : FFFF;
 93EC : FFFF;
 93EC : FFFF;
 93ED : FFFF;
 93ED : FFFF;
 93EE : FFFF;
 93EE : FFFF;
 93EF : FFFF;
 93EF : FFFF;
 93F0 : FFFE;
 93F0 : FEFE;
 93F1 : FEFE;
 93F1 : FEFE;
 93F2 : FEFE;
 93F2 : FEFE;
 93F3 : FEFE;
 93F3 : FEFE;
 93F4 : FEFE;
 93F4 : FEFE;
 93F5 : FEFE;
 93F5 : FEFE;
 93F6 : FEFE;
 93F6 : FEFE;
 93F7 : FEFE;
 93F7 : FEFE;
 93F8 : FEFE;
 93F8 : FEFF;
 93F9 : FFFF;
 93F9 : FFFF;
 93FA : FFFF;
 93FA : FFFF;
 93FB : FFFF;
 93FB : FFFF;
 93FC : FFFF;
 93FC : FFFF;
 93FD : FFFF;
 93FD : FFFF;
 93FE : FFFF;
 93FE : FFFF;
 93FF : FFFF;
 93FF : FFFF;
 9400 : FFFE;
 9400 : FEFE;
 9401 : FEFE;
 9401 : FEFE;
 9402 : FEFE;
 9402 : FEFE;
 9403 : FEFE;
 9403 : FEFE;
 9404 : FEFE;
 9404 : FEFE;
 9405 : FEFE;
 9405 : FEFE;
 9406 : FEFE;
 9406 : FEFE;
 9407 : FEFE;
 9407 : FEFE;
 9408 : FEFE;
 9408 : FEFF;
 9409 : FFFF;
 9409 : FFFF;
 940A : FFFF;
 940A : FFFF;
 940B : FFFF;
 940B : FFFF;
 940C : FFFF;
 940C : FFFF;
 940D : FFFF;
 940D : FFFF;
 940E : FFFF;
 940E : FFFF;
 940F : FFFF;
 940F : FFFF;
 9410 : FFFF;
 9410 : FFFF;
 9411 : FFFF;
 9411 : FFFF;
 9412 : FFFF;
 9412 : FFFF;
 9413 : FFFF;
 9413 : FFFF;
 9414 : FFFF;
 9414 : FFFF;
 9415 : FFFF;
 9415 : FFFF;
 9416 : FFFF;
 9416 : FFFF;
 9417 : FFFF;
 9417 : FFFF;
 9418 : FFFF;
 9418 : FFFF;
 9419 : FFFF;
 9419 : FFFF;
 941A : FFFF;
 941A : FFFF;
 941B : FFFF;
 941B : FFFF;
 941C : FFFF;
 941C : FFFF;
 941D : FFFF;
 941D : FFFF;
 941E : FFFF;
 941E : FFFF;
 941F : FFFF;
 941F : FFFF;
 9420 : FFFF;
 9420 : FFFF;
 9421 : FFFF;
 9421 : FFFF;
 9422 : FFFF;
 9422 : FFFF;
 9423 : FFFF;
 9423 : FFFF;
 9424 : FFFF;
 9424 : FFFF;
 9425 : FFFF;
 9425 : FFFF;
 9426 : FFFF;
 9426 : FFFF;
 9427 : FFFF;
 9427 : FFFF;
 9428 : FFFF;
 9428 : FFFF;
 9429 : FFFF;
 9429 : FFFF;
 942A : FFFF;
 942A : FFFF;
 942B : FFFF;
 942B : FFFF;
 942C : FFFF;
 942C : FFFF;
 942D : FFFF;
 942D : FFFF;
 942E : FFFF;
 942E : FFFF;
 942F : FFFF;
 942F : FFFF;
 9430 : FFFF;
 9430 : FFFF;
 9431 : FFFF;
 9431 : FFFF;
 9432 : FFFF;
 9432 : FFFF;
 9433 : FFFF;
 9433 : FFFF;
 9434 : FFFF;
 9434 : FFFF;
 9435 : FFFF;
 9435 : FFFF;
 9436 : FFFF;
 9436 : FFFF;
 9437 : FFFF;
 9437 : FFFF;
 9438 : FFFF;
 9438 : FFFF;
 9439 : FFFF;
 9439 : FFFF;
 943A : FFFF;
 943A : FFFF;
 943B : FFFF;
 943B : FFFF;
 943C : FFFF;
 943C : FFFF;
 943D : FFFF;
 943D : FFFF;
 943E : FFFF;
 943E : FFFF;
 943F : FFFF;
 943F : FFFF;
 9440 : FFFF;
 9440 : FFFF;
 9441 : FFFF;
 9441 : FFFF;
 9442 : FFFF;
 9442 : FFFF;
 9443 : FFFF;
 9443 : FFFF;
 9444 : FFFF;
 9444 : FFFF;
 9445 : FFFF;
 9445 : FFFF;
 9446 : FFFF;
 9446 : FFFF;
 9447 : FFFF;
 9447 : FFFF;
 9448 : FFFF;
 9448 : FFFF;
 9449 : FFFF;
 9449 : FFFF;
 944A : FFFF;
 944A : FFFF;
 944B : FFFF;
 944B : FFFF;
 944C : FFFF;
 944C : FFFF;
 944D : FFFF;
 944D : FFFF;
 944E : FFFF;
 944E : FFFF;
 944F : FFFF;
 944F : FFFF;
 9450 : FFFF;
 9450 : FFFF;
 9451 : FFFF;
 9451 : FFFF;
 9452 : FFFF;
 9452 : FFFF;
 9453 : FFFF;
 9453 : FFFF;
 9454 : FFFF;
 9454 : FFFF;
 9455 : FFFF;
 9455 : FFFF;
 9456 : FFFF;
 9456 : FFFF;
 9457 : FFFF;
 9457 : FFFF;
 9458 : FFFF;
 9458 : FFFF;
 9459 : FFFF;
 9459 : FFFF;
 945A : FFFF;
 945A : FFFF;
 945B : FFFF;
 945B : FFFF;
 945C : FFFF;
 945C : FFFF;
 945D : FFFF;
 945D : FFFF;
 945E : FFFF;
 945E : FFFF;
 945F : FFFF;
 945F : FFFF;
 9460 : FFFF;
 9460 : FFFF;
 9461 : FFFF;
 9461 : FFFF;
 9462 : FFFF;
 9462 : FFFF;
 9463 : FFFF;
 9463 : FFFF;
 9464 : FFFF;
 9464 : FFFF;
 9465 : FFFF;
 9465 : FFFF;
 9466 : FFFF;
 9466 : FFFF;
 9467 : FFFF;
 9467 : FFFF;
 9468 : FFFF;
 9468 : FFFF;
 9469 : FFFF;
 9469 : FFFF;
 946A : FFFF;
 946A : FFFF;
 946B : FFFF;
 946B : FFFF;
 946C : FFFF;
 946C : FFFF;
 946D : FFFF;
 946D : FFFF;
 946E : FFFF;
 946E : FFFF;
 946F : FFFF;
 946F : FFFF;
 9470 : FFFF;
 9470 : FFFF;
 9471 : FFFF;
 9471 : FFFF;
 9472 : FFFF;
 9472 : FFFF;
 9473 : FFFF;
 9473 : FFFF;
 9474 : FFFF;
 9474 : FFFF;
 9475 : FFFF;
 9475 : FFFF;
 9476 : FFFF;
 9476 : FFFF;
 9477 : FFFF;
 9477 : FFFF;
 9478 : FFFF;
 9478 : FFFF;
 9479 : FFFF;
 9479 : FFFF;
 947A : FFFF;
 947A : FFFF;
 947B : FFFF;
 947B : FFFF;
 947C : FFFF;
 947C : FFFF;
 947D : FFFF;
 947D : FFFF;
 947E : FFFF;
 947E : FFFF;
 947F : FFFF;
 947F : FFFF;
 9480 : FFFF;
 9480 : FFFF;
 9481 : FFFF;
 9481 : FFFF;
 9482 : FFFF;
 9482 : FFFF;
 9483 : FFFF;
 9483 : FFFF;
 9484 : FFFF;
 9484 : FFFF;
 9485 : FFFF;
 9485 : FFFF;
 9486 : FFFF;
 9486 : FFFF;
 9487 : FFFF;
 9487 : FFFF;
 9488 : FFFF;
 9488 : FFFF;
 9489 : FFFF;
 9489 : FFFF;
 948A : FFFF;
 948A : FFFF;
 948B : FFFF;
 948B : FFFF;
 948C : FFFF;
 948C : FFFF;
 948D : FFFE;
 948D : FEFE;
 948E : FEFE;
 948E : FEFE;
 948F : FEFE;
 948F : FEFE;
 9490 : FEFF;
 9490 : FFFE;
 9491 : FEFF;
 9491 : FFFE;
 9492 : FEFF;
 9492 : FFFE;
 9493 : FEFF;
 9493 : FFFE;
 9494 : FEFE;
 9494 : FEFE;
 9495 : FEFE;
 9495 : FEFE;
 9496 : FEFE;
 9496 : FEFE;
 9497 : FEFE;
 9497 : FEFE;
 9498 : FEFE;
 9498 : FEFE;
 9499 : FEFE;
 9499 : FEFE;
 949A : FEFE;
 949A : FEFE;
 949B : FEFE;
 949B : FEFE;
 949C : FEFF;
 949C : FFFF;
 949D : FFFF;
 949D : FFFF;
 949E : FFFF;
 949E : FFFF;
 949F : FFFF;
 949F : FFFF;
 94A0 : FFFE;
 94A0 : FEFE;
 94A1 : FEFE;
 94A1 : FEFE;
 94A2 : FEFF;
 94A2 : FFFF;
 94A3 : FFFF;
 94A3 : FFFF;
 94A4 : FFFF;
 94A4 : FFFE;
 94A5 : FEFE;
 94A5 : FEFE;
 94A6 : FEFE;
 94A6 : FEFE;
 94A7 : FEFE;
 94A7 : FEFE;
 94A8 : FEFF;
 94A8 : FFFF;
 94A9 : FFFF;
 94A9 : FFFF;
 94AA : FFFF;
 94AA : FFFF;
 94AB : FFFF;
 94AB : FFFF;
 94AC : FFFF;
 94AC : FFFF;
 94AD : FFFF;
 94AD : FFFF;
 94AE : FFFF;
 94AE : FFFF;
 94AF : FFFF;
 94AF : FFFF;
 94B0 : FFFF;
 94B0 : FFFF;
 94B1 : FFFF;
 94B1 : FFFF;
 94B2 : FFFF;
 94B2 : FFFF;
 94B3 : FFFF;
 94B3 : FFFF;
 94B4 : FFFF;
 94B4 : FFFF;
 94B5 : FFFF;
 94B5 : FFFF;
 94B6 : FFFF;
 94B6 : FFFF;
 94B7 : FFFF;
 94B7 : FFFF;
 94B8 : FFFF;
 94B8 : FFFF;
 94B9 : FFFF;
 94B9 : FFFF;
 94BA : FFFF;
 94BA : FFFF;
 94BB : FFFF;
 94BB : FFFF;
 94BC : FFFF;
 94BC : FFFF;
 94BD : FFFF;
 94BD : FFFF;
 94BE : FFFF;
 94BE : FFFF;
 94BF : FFFF;
 94BF : FFFF;
 94C0 : FFFF;
 94C0 : FFFF;
 94C1 : FFFF;
 94C1 : FFFF;
 94C2 : FFFF;
 94C2 : FFFF;
 94C3 : FFFF;
 94C3 : FFFF;
 94C4 : FFFF;
 94C4 : FFFF;
 94C5 : FFFF;
 94C5 : FFFF;
 94C6 : FFFF;
 94C6 : FFFF;
 94C7 : FFFF;
 94C7 : FFFF;
 94C8 : FFFF;
 94C8 : FFFF;
 94C9 : FFFF;
 94C9 : FFFF;
 94CA : FFFF;
 94CA : FFFF;
 94CB : FFFF;
 94CB : FFFF;
 94CC : FFFF;
 94CC : FFFF;
 94CD : FFFF;
 94CD : FFFF;
 94CE : FFFF;
 94CE : FFFF;
 94CF : FFFF;
 94CF : FFFF;
 94D0 : FFFF;
 94D0 : FFFF;
 94D1 : FFFF;
 94D1 : FFFF;
 94D2 : FFFF;
 94D2 : FFFF;
 94D3 : FFFF;
 94D3 : FFFF;
 94D4 : FFFF;
 94D4 : FFFF;
 94D5 : FFFF;
 94D5 : FFFF;
 94D6 : FFFF;
 94D6 : FFFF;
 94D7 : FFFF;
 94D7 : FFFF;
 94D8 : FFFF;
 94D8 : FFFF;
 94D9 : FFFF;
 94D9 : FFFF;
 94DA : FFFF;
 94DA : FFFF;
 94DB : FFFF;
 94DB : FFFF;
 94DC : FFFF;
 94DC : FFFF;
 94DD : FFFF;
 94DD : FFFF;
 94DE : FFFF;
 94DE : FFFF;
 94DF : FFFF;
 94DF : FFFF;
 94E0 : FFFF;
 94E0 : FFFF;
 94E1 : FFFF;
 94E1 : FFFF;
 94E2 : FFFF;
 94E2 : FFFF;
 94E3 : FFFF;
 94E3 : FFFF;
 94E4 : FFFF;
 94E4 : FFFF;
 94E5 : FFFF;
 94E5 : FFFF;
 94E6 : FFFF;
 94E6 : FFFF;
 94E7 : FFFF;
 94E7 : FFFF;
 94E8 : FFFF;
 94E8 : FFFF;
 94E9 : FFFF;
 94E9 : FFFF;
 94EA : FFFF;
 94EA : FFFF;
 94EB : FFFF;
 94EB : FFFF;
 94EC : FFFF;
 94EC : FFFF;
 94ED : FFFF;
 94ED : FFFF;
 94EE : FFFF;
 94EE : FFFF;
 94EF : FFFF;
 94EF : FFFF;
 94F0 : FFFF;
 94F0 : FFFF;
 94F1 : FFFF;
 94F1 : FFFF;
 94F2 : FFFF;
 94F2 : FFFF;
 94F3 : FFFF;
 94F3 : FFFF;
 94F4 : FFFF;
 94F4 : FFFF;
 94F5 : FFFF;
 94F5 : FFFF;
 94F6 : FFFF;
 94F6 : FFFF;
 94F7 : FFFF;
 94F7 : FFFF;
 94F8 : FFFF;
 94F8 : FFFF;
 94F9 : FFFF;
 94F9 : FFFF;
 94FA : FFFF;
 94FA : FFFF;
 94FB : FFFF;
 94FB : FFFF;
 94FC : FFFF;
 94FC : FFFF;
 94FD : FFFF;
 94FD : FFFF;
 94FE : FFFF;
 94FE : FFFF;
 94FF : FFFF;
 94FF : FFFF;
 9500 : FFFF;
 9500 : FFFF;
 9501 : FFFF;
 9501 : FFFF;
 9502 : FFFF;
 9502 : FFFF;
 9503 : FFFF;
 9503 : FFFF;
 9504 : FFFF;
 9504 : FFFF;
 9505 : FFFF;
 9505 : FFFF;
 9506 : FFFF;
 9506 : FFFF;
 9507 : FFFF;
 9507 : FFFF;
 9508 : FFFF;
 9508 : FFFF;
 9509 : FFFF;
 9509 : FFFF;
 950A : FFFF;
 950A : FFFF;
 950B : FFFF;
 950B : FFFF;
 950C : FFFF;
 950C : FFFF;
 950D : FFFF;
 950D : FFFF;
 950E : FFFF;
 950E : FFFF;
 950F : FFFF;
 950F : FFFF;
 9510 : FFFF;
 9510 : FFFF;
 9511 : FFFF;
 9511 : FFFF;
 9512 : FFFF;
 9512 : FFFF;
 9513 : FFFF;
 9513 : FFFF;
 9514 : FFFF;
 9514 : FFFF;
 9515 : FFFF;
 9515 : FFFF;
 9516 : FFFF;
 9516 : FFFF;
 9517 : FFFF;
 9517 : FFFF;
 9518 : FFFF;
 9518 : FFFF;
 9519 : FFFF;
 9519 : FFFF;
 951A : FFFF;
 951A : FFFF;
 951B : FFFF;
 951B : FFFF;
 951C : FFFF;
 951C : FFFF;
 951D : FFFF;
 951D : FFFF;
 951E : FFFF;
 951E : FFFF;
 951F : FFFF;
 951F : FFFF;
 9520 : FFFF;
 9520 : FFFF;
 9521 : FFFF;
 9521 : FFFF;
 9522 : FFFF;
 9522 : FFFF;
 9523 : FFFF;
 9523 : FFFF;
 9524 : FFFF;
 9524 : FFFF;
 9525 : FFFF;
 9525 : FFFF;
 9526 : FFFF;
 9526 : FFFF;
 9527 : FFFF;
 9527 : FFFF;
 9528 : FFFF;
 9528 : FFFF;
 9529 : FFFF;
 9529 : FFFF;
 952A : FFFF;
 952A : FFFF;
 952B : FFFF;
 952B : FFFE;
 952C : FEFE;
 952C : FEFE;
 952D : FEFE;
 952D : FEFD;
 952E : FDFD;
 952E : FDFD;
 952F : FDFE;
 952F : FEFE;
 9530 : FEFE;
 9530 : FEFE;
 9531 : FEFE;
 9531 : FEFE;
 9532 : FEFE;
 9532 : FEFE;
 9533 : FEFE;
 9533 : FEFE;
 9534 : FEFE;
 9534 : FEFE;
 9535 : FEFE;
 9535 : FEFE;
 9536 : FEFE;
 9536 : FEFE;
 9537 : FEFE;
 9537 : FEFE;
 9538 : FEFE;
 9538 : FEFE;
 9539 : FEFE;
 9539 : FEFE;
 953A : FEFE;
 953A : FEFE;
 953B : FEFE;
 953B : FEFE;
 953C : FEFE;
 953C : FEFE;
 953D : FEFE;
 953D : FEFE;
 953E : FEFE;
 953E : FEFE;
 953F : FEFF;
 953F : FFFE;
 9540 : FEFE;
 9540 : FEFE;
 9541 : FEFE;
 9541 : FEFF;
 9542 : FFFF;
 9542 : FFFF;
 9543 : FFFF;
 9543 : FFFE;
 9544 : FEFE;
 9544 : FEFE;
 9545 : FEFE;
 9545 : FEFE;
 9546 : FEFE;
 9546 : FEFD;
 9547 : FDFE;
 9547 : FEFF;
 9548 : FFFF;
 9548 : FFFF;
 9549 : FFFF;
 9549 : FFFF;
 954A : FFFF;
 954A : FFFF;
 954B : FFFF;
 954B : FFFF;
 954C : FFFF;
 954C : FFFF;
 954D : FFFF;
 954D : FFFF;
 954E : FFFF;
 954E : FFFF;
 954F : FFFF;
 954F : FFFF;
 9550 : FFFF;
 9550 : FFFF;
 9551 : FFFF;
 9551 : FFFF;
 9552 : FFFF;
 9552 : FFFF;
 9553 : FFFF;
 9553 : FFFF;
 9554 : FFFF;
 9554 : FFFF;
 9555 : FFFF;
 9555 : FFFF;
 9556 : FFFF;
 9556 : FFFF;
 9557 : FFFF;
 9557 : FFFF;
 9558 : FFFF;
 9558 : FFFF;
 9559 : FFFF;
 9559 : FFFF;
 955A : FFFF;
 955A : FFFF;
 955B : FFFF;
 955B : FFFF;
 955C : FFFF;
 955C : FFFF;
 955D : FFFF;
 955D : FFFF;
 955E : FFFF;
 955E : FFFF;
 955F : FFFF;
 955F : FFFF;
 9560 : FFFF;
 9560 : FFFF;
 9561 : FFFF;
 9561 : FFFF;
 9562 : FFFF;
 9562 : FFFF;
 9563 : FFFF;
 9563 : FFFF;
 9564 : FFFF;
 9564 : FFFF;
 9565 : FFFF;
 9565 : FFFF;
 9566 : FFFF;
 9566 : FFFF;
 9567 : FFFF;
 9567 : FFFF;
 9568 : FFFF;
 9568 : FFFF;
 9569 : FFFF;
 9569 : FFFF;
 956A : FFFF;
 956A : FFFF;
 956B : FFFF;
 956B : FFFF;
 956C : FFFF;
 956C : FFFF;
 956D : FFFF;
 956D : FFFF;
 956E : FFFF;
 956E : FFFF;
 956F : FFFF;
 956F : FFFF;
 9570 : FFFF;
 9570 : FFFF;
 9571 : FFFF;
 9571 : FFFF;
 9572 : FFFF;
 9572 : FFFF;
 9573 : FFFF;
 9573 : FFFF;
 9574 : FFFF;
 9574 : FFFF;
 9575 : FFFF;
 9575 : FFFF;
 9576 : FFFF;
 9576 : FFFF;
 9577 : FFFF;
 9577 : FFFF;
 9578 : FFFF;
 9578 : FFFF;
 9579 : FFFF;
 9579 : FFFF;
 957A : FFFF;
 957A : FFFF;
 957B : FFFF;
 957B : FFFF;
 957C : FFFF;
 957C : FFFF;
 957D : FFFF;
 957D : FFFF;
 957E : FFFF;
 957E : FFFF;
 957F : FFFF;
 957F : FFFF;
 9580 : FFFF;
 9580 : FFFF;
 9581 : FFFF;
 9581 : FFFF;
 9582 : FFFF;
 9582 : FFFF;
 9583 : FFFF;
 9583 : FFFF;
 9584 : FFFF;
 9584 : FFFF;
 9585 : FFFF;
 9585 : FFFF;
 9586 : FFFF;
 9586 : FFFF;
 9587 : FFFF;
 9587 : FF00;
END;
