WIDTH=8;
DEPTH=76800;

ADDRESS_RADIX=HEX;
DATA_RADIX=HEX;

CONTENT BEGIN
 0 : FF;
 1 : FF;
 2 : FF;
 3 : FF;
 4 : FF;
 5 : FF;
 6 : FF;
 7 : FF;
 8 : FF;
 9 : FF;
 A : FF;
 B : FF;
 C : FF;
 D : FF;
 E : FF;
 F : FF;
 10 : FF;
 11 : FF;
 12 : FF;
 13 : FF;
 14 : FF;
 15 : FF;
 16 : FF;
 17 : FF;
 18 : FF;
 19 : FF;
 1A : FF;
 1B : FF;
 1C : FF;
 1D : FF;
 1E : FF;
 1F : FF;
 20 : FF;
 21 : FF;
 22 : FF;
 23 : FF;
 24 : FF;
 25 : FF;
 26 : FF;
 27 : FF;
 28 : FF;
 29 : FF;
 2A : FF;
 2B : FF;
 2C : FF;
 2D : FF;
 2E : FF;
 2F : FF;
 30 : FF;
 31 : FF;
 32 : FF;
 33 : FF;
 34 : FF;
 35 : FF;
 36 : FF;
 37 : FF;
 38 : FF;
 39 : FF;
 3A : FF;
 3B : FF;
 3C : FF;
 3D : FF;
 3E : FF;
 3F : FF;
 40 : FF;
 41 : FF;
 42 : FF;
 43 : FF;
 44 : FF;
 45 : FF;
 46 : FF;
 47 : FF;
 48 : FF;
 49 : FF;
 4A : FF;
 4B : FF;
 4C : FF;
 4D : FF;
 4E : FF;
 4F : FF;
 50 : FF;
 51 : FF;
 52 : FF;
 53 : FF;
 54 : FF;
 55 : FF;
 56 : FF;
 57 : FF;
 58 : FF;
 59 : FF;
 5A : FF;
 5B : FF;
 5C : FF;
 5D : FF;
 5E : FF;
 5F : FE;
 60 : FE;
 61 : FF;
 62 : FF;
 63 : FE;
 64 : FE;
 65 : FD;
 66 : FE;
 67 : FD;
 68 : FE;
 69 : FE;
 6A : FE;
 6B : FD;
 6C : FC;
 6D : FD;
 6E : FE;
 6F : FE;
 70 : FF;
 71 : FF;
 72 : FF;
 73 : FF;
 74 : FF;
 75 : FF;
 76 : FF;
 77 : FF;
 78 : FF;
 79 : FF;
 7A : FF;
 7B : FF;
 7C : FF;
 7D : FF;
 7E : FF;
 7F : FF;
 80 : FF;
 81 : FF;
 82 : FF;
 83 : FF;
 84 : FF;
 85 : FF;
 86 : FF;
 87 : FF;
 88 : FF;
 89 : FF;
 8A : FF;
 8B : FF;
 8C : FF;
 8D : FF;
 8E : FF;
 8F : FF;
 90 : FF;
 91 : FF;
 92 : FF;
 93 : FF;
 94 : FF;
 95 : FF;
 96 : FF;
 97 : FF;
 98 : FF;
 99 : FF;
 9A : FF;
 9B : FF;
 9C : FF;
 9D : FF;
 9E : FF;
 9F : FF;
 A0 : FF;
 A1 : FF;
 A2 : FF;
 A3 : FF;
 A4 : FF;
 A5 : FF;
 A6 : FF;
 A7 : FF;
 A8 : FF;
 A9 : FF;
 AA : FF;
 AB : FF;
 AC : FF;
 AD : FF;
 AE : FF;
 AF : FF;
 B0 : FF;
 B1 : FF;
 B2 : FF;
 B3 : FF;
 B4 : FF;
 B5 : FF;
 B6 : FF;
 B7 : FF;
 B8 : FF;
 B9 : FF;
 BA : FF;
 BB : FF;
 BC : FF;
 BD : FF;
 BE : FF;
 BF : FF;
 C0 : FF;
 C1 : FF;
 C2 : FF;
 C3 : FF;
 C4 : FF;
 C5 : FF;
 C6 : FF;
 C7 : FF;
 C8 : FF;
 C9 : FF;
 CA : FF;
 CB : FF;
 CC : FF;
 CD : FF;
 CE : FF;
 CF : FF;
 D0 : FE;
 D1 : FE;
 D2 : FE;
 D3 : FE;
 D4 : FE;
 D5 : FC;
 D6 : FC;
 D7 : FC;
 D8 : FD;
 D9 : FD;
 DA : FE;
 DB : FE;
 DC : FD;
 DD : FD;
 DE : FD;
 DF : FE;
 E0 : FF;
 E1 : FF;
 E2 : FF;
 E3 : FF;
 E4 : FF;
 E5 : FF;
 E6 : FF;
 E7 : FF;
 E8 : FF;
 E9 : FF;
 EA : FF;
 EB : FF;
 EC : FF;
 ED : FF;
 EE : FF;
 EF : FF;
 F0 : FF;
 F1 : FF;
 F2 : FF;
 F3 : FF;
 F4 : FF;
 F5 : FF;
 F6 : FF;
 F7 : FF;
 F8 : FF;
 F9 : FF;
 FA : FF;
 FB : FF;
 FC : FF;
 FD : FF;
 FE : FF;
 FF : FF;
 100 : FF;
 101 : FF;
 102 : FF;
 103 : FF;
 104 : FF;
 105 : FF;
 106 : FF;
 107 : FF;
 108 : FF;
 109 : FF;
 10A : FF;
 10B : FF;
 10C : FF;
 10D : FF;
 10E : FF;
 10F : FF;
 110 : FF;
 111 : FF;
 112 : FF;
 113 : FF;
 114 : FF;
 115 : FF;
 116 : FF;
 117 : FF;
 118 : FF;
 119 : FF;
 11A : FF;
 11B : FF;
 11C : FF;
 11D : FF;
 11E : FF;
 11F : FF;
 120 : FF;
 121 : FF;
 122 : FF;
 123 : FF;
 124 : FF;
 125 : FF;
 126 : FF;
 127 : FF;
 128 : FF;
 129 : FF;
 12A : FF;
 12B : FF;
 12C : FF;
 12D : FF;
 12E : FF;
 12F : FF;
 130 : FF;
 131 : FF;
 132 : FF;
 133 : FF;
 134 : FF;
 135 : FF;
 136 : FF;
 137 : FF;
 138 : FF;
 139 : FF;
 13A : FF;
 13B : FF;
 13C : FF;
 13D : FF;
 13E : FF;
 13F : FF;
 140 : FF;
 141 : FF;
 142 : FF;
 143 : FF;
 144 : FF;
 145 : FF;
 146 : FF;
 147 : FF;
 148 : FF;
 149 : FF;
 14A : FF;
 14B : FF;
 14C : FF;
 14D : FF;
 14E : FF;
 14F : FF;
 150 : FF;
 151 : FF;
 152 : FF;
 153 : FF;
 154 : FF;
 155 : FF;
 156 : FF;
 157 : FF;
 158 : FF;
 159 : FF;
 15A : FF;
 15B : FF;
 15C : FF;
 15D : FF;
 15E : FF;
 15F : FF;
 160 : FF;
 161 : FF;
 162 : FF;
 163 : FF;
 164 : FF;
 165 : FF;
 166 : FF;
 167 : FF;
 168 : FF;
 169 : FF;
 16A : FF;
 16B : FF;
 16C : FF;
 16D : FF;
 16E : FF;
 16F : FF;
 170 : FF;
 171 : FF;
 172 : FF;
 173 : FF;
 174 : FF;
 175 : FF;
 176 : FF;
 177 : FF;
 178 : FF;
 179 : FF;
 17A : FF;
 17B : FF;
 17C : FF;
 17D : FF;
 17E : FF;
 17F : FF;
 180 : FF;
 181 : FF;
 182 : FF;
 183 : FF;
 184 : FF;
 185 : FF;
 186 : FF;
 187 : FF;
 188 : FF;
 189 : FF;
 18A : FF;
 18B : FF;
 18C : FF;
 18D : FF;
 18E : FF;
 18F : FF;
 190 : FF;
 191 : FF;
 192 : FF;
 193 : FF;
 194 : FF;
 195 : FF;
 196 : FF;
 197 : FF;
 198 : FF;
 199 : FF;
 19A : FF;
 19B : FF;
 19C : FF;
 19D : FF;
 19E : FF;
 19F : FE;
 1A0 : FE;
 1A1 : FF;
 1A2 : FF;
 1A3 : FE;
 1A4 : FE;
 1A5 : FE;
 1A6 : FE;
 1A7 : FE;
 1A8 : FE;
 1A9 : FD;
 1AA : FE;
 1AB : FE;
 1AC : FE;
 1AD : FD;
 1AE : FE;
 1AF : FE;
 1B0 : FF;
 1B1 : FF;
 1B2 : FF;
 1B3 : FF;
 1B4 : FF;
 1B5 : FF;
 1B6 : FF;
 1B7 : FF;
 1B8 : FF;
 1B9 : FF;
 1BA : FF;
 1BB : FF;
 1BC : FF;
 1BD : FF;
 1BE : FF;
 1BF : FF;
 1C0 : FF;
 1C1 : FF;
 1C2 : FF;
 1C3 : FF;
 1C4 : FF;
 1C5 : FF;
 1C6 : FF;
 1C7 : FF;
 1C8 : FF;
 1C9 : FF;
 1CA : FF;
 1CB : FF;
 1CC : FF;
 1CD : FF;
 1CE : FF;
 1CF : FF;
 1D0 : FF;
 1D1 : FF;
 1D2 : FF;
 1D3 : FF;
 1D4 : FF;
 1D5 : FF;
 1D6 : FF;
 1D7 : FF;
 1D8 : FF;
 1D9 : FF;
 1DA : FF;
 1DB : FF;
 1DC : FF;
 1DD : FF;
 1DE : FF;
 1DF : FF;
 1E0 : FF;
 1E1 : FF;
 1E2 : FF;
 1E3 : FF;
 1E4 : FF;
 1E5 : FF;
 1E6 : FF;
 1E7 : FF;
 1E8 : FF;
 1E9 : FF;
 1EA : FF;
 1EB : FF;
 1EC : FF;
 1ED : FF;
 1EE : FF;
 1EF : FF;
 1F0 : FF;
 1F1 : FF;
 1F2 : FF;
 1F3 : FF;
 1F4 : FF;
 1F5 : FF;
 1F6 : FF;
 1F7 : FF;
 1F8 : FF;
 1F9 : FF;
 1FA : FF;
 1FB : FF;
 1FC : FF;
 1FD : FF;
 1FE : FF;
 1FF : FF;
 200 : FF;
 201 : FF;
 202 : FF;
 203 : FF;
 204 : FF;
 205 : FF;
 206 : FF;
 207 : FF;
 208 : FF;
 209 : FF;
 20A : FF;
 20B : FF;
 20C : FF;
 20D : FF;
 20E : FF;
 20F : FF;
 210 : FF;
 211 : FE;
 212 : FF;
 213 : FE;
 214 : FE;
 215 : FD;
 216 : FC;
 217 : FD;
 218 : FD;
 219 : FD;
 21A : FE;
 21B : FE;
 21C : FE;
 21D : FD;
 21E : FD;
 21F : FE;
 220 : FF;
 221 : FF;
 222 : FF;
 223 : FF;
 224 : FF;
 225 : FF;
 226 : FF;
 227 : FF;
 228 : FF;
 229 : FF;
 22A : FF;
 22B : FF;
 22C : FF;
 22D : FF;
 22E : FF;
 22F : FF;
 230 : FF;
 231 : FF;
 232 : FF;
 233 : FF;
 234 : FF;
 235 : FF;
 236 : FF;
 237 : FF;
 238 : FF;
 239 : FF;
 23A : FF;
 23B : FF;
 23C : FF;
 23D : FF;
 23E : FF;
 23F : FF;
 240 : FF;
 241 : FF;
 242 : FF;
 243 : FF;
 244 : FF;
 245 : FF;
 246 : FF;
 247 : FF;
 248 : FF;
 249 : FF;
 24A : FF;
 24B : FF;
 24C : FF;
 24D : FF;
 24E : FF;
 24F : FF;
 250 : FF;
 251 : FF;
 252 : FF;
 253 : FF;
 254 : FF;
 255 : FF;
 256 : FF;
 257 : FF;
 258 : FF;
 259 : FF;
 25A : FF;
 25B : FF;
 25C : FF;
 25D : FF;
 25E : FF;
 25F : FF;
 260 : FF;
 261 : FF;
 262 : FF;
 263 : FF;
 264 : FF;
 265 : FF;
 266 : FF;
 267 : FF;
 268 : FF;
 269 : FF;
 26A : FF;
 26B : FF;
 26C : FF;
 26D : FF;
 26E : FF;
 26F : FF;
 270 : FF;
 271 : FF;
 272 : FF;
 273 : FF;
 274 : FF;
 275 : FF;
 276 : FF;
 277 : FF;
 278 : FF;
 279 : FF;
 27A : FF;
 27B : FF;
 27C : FF;
 27D : FF;
 27E : FF;
 27F : FF;
 280 : FF;
 281 : FF;
 282 : FF;
 283 : FF;
 284 : FF;
 285 : FF;
 286 : FF;
 287 : FF;
 288 : FF;
 289 : FF;
 28A : FF;
 28B : FF;
 28C : FF;
 28D : FF;
 28E : FF;
 28F : FF;
 290 : FF;
 291 : FF;
 292 : FF;
 293 : FF;
 294 : FF;
 295 : FF;
 296 : FF;
 297 : FF;
 298 : FF;
 299 : FF;
 29A : FF;
 29B : FF;
 29C : FF;
 29D : FF;
 29E : FF;
 29F : FF;
 2A0 : FF;
 2A1 : FF;
 2A2 : FF;
 2A3 : FF;
 2A4 : FF;
 2A5 : FF;
 2A6 : FF;
 2A7 : FF;
 2A8 : FF;
 2A9 : FF;
 2AA : FF;
 2AB : FF;
 2AC : FF;
 2AD : FF;
 2AE : FF;
 2AF : FF;
 2B0 : FF;
 2B1 : FF;
 2B2 : FF;
 2B3 : FF;
 2B4 : FF;
 2B5 : FF;
 2B6 : FF;
 2B7 : FF;
 2B8 : FF;
 2B9 : FF;
 2BA : FF;
 2BB : FF;
 2BC : FF;
 2BD : FF;
 2BE : FF;
 2BF : FF;
 2C0 : FF;
 2C1 : FF;
 2C2 : FF;
 2C3 : FF;
 2C4 : FF;
 2C5 : FF;
 2C6 : FF;
 2C7 : FF;
 2C8 : FF;
 2C9 : FF;
 2CA : FF;
 2CB : FF;
 2CC : FF;
 2CD : FF;
 2CE : FF;
 2CF : FF;
 2D0 : FF;
 2D1 : FF;
 2D2 : FF;
 2D3 : FF;
 2D4 : FF;
 2D5 : FF;
 2D6 : FF;
 2D7 : FF;
 2D8 : FF;
 2D9 : FF;
 2DA : FF;
 2DB : FF;
 2DC : FF;
 2DD : FF;
 2DE : FF;
 2DF : FF;
 2E0 : FF;
 2E1 : FF;
 2E2 : FF;
 2E3 : FE;
 2E4 : FE;
 2E5 : FE;
 2E6 : FE;
 2E7 : FF;
 2E8 : FF;
 2E9 : FF;
 2EA : FF;
 2EB : FE;
 2EC : FF;
 2ED : FE;
 2EE : FE;
 2EF : FF;
 2F0 : FF;
 2F1 : FF;
 2F2 : FF;
 2F3 : FF;
 2F4 : FF;
 2F5 : FF;
 2F6 : FF;
 2F7 : FF;
 2F8 : FF;
 2F9 : FF;
 2FA : FF;
 2FB : FF;
 2FC : FF;
 2FD : FF;
 2FE : FF;
 2FF : FF;
 300 : FF;
 301 : FF;
 302 : FF;
 303 : FF;
 304 : FF;
 305 : FF;
 306 : FF;
 307 : FF;
 308 : FF;
 309 : FF;
 30A : FF;
 30B : FF;
 30C : FF;
 30D : FF;
 30E : FF;
 30F : FF;
 310 : FF;
 311 : FF;
 312 : FF;
 313 : FF;
 314 : FF;
 315 : FF;
 316 : FF;
 317 : FF;
 318 : FF;
 319 : FF;
 31A : FF;
 31B : FF;
 31C : FF;
 31D : FF;
 31E : FF;
 31F : FF;
 320 : FF;
 321 : FF;
 322 : FF;
 323 : FF;
 324 : FF;
 325 : FF;
 326 : FF;
 327 : FF;
 328 : FF;
 329 : FF;
 32A : FF;
 32B : FF;
 32C : FF;
 32D : FF;
 32E : FF;
 32F : FF;
 330 : FF;
 331 : FF;
 332 : FF;
 333 : FF;
 334 : FF;
 335 : FF;
 336 : FF;
 337 : FF;
 338 : FF;
 339 : FF;
 33A : FF;
 33B : FF;
 33C : FF;
 33D : FF;
 33E : FF;
 33F : FF;
 340 : FF;
 341 : FF;
 342 : FF;
 343 : FF;
 344 : FF;
 345 : FF;
 346 : FF;
 347 : FF;
 348 : FF;
 349 : FF;
 34A : FF;
 34B : FF;
 34C : FF;
 34D : FF;
 34E : FF;
 34F : FF;
 350 : FE;
 351 : FE;
 352 : FF;
 353 : FF;
 354 : FF;
 355 : FE;
 356 : FE;
 357 : FE;
 358 : FE;
 359 : FE;
 35A : FF;
 35B : FE;
 35C : FE;
 35D : FE;
 35E : FE;
 35F : FF;
 360 : FF;
 361 : FF;
 362 : FF;
 363 : FF;
 364 : FF;
 365 : FF;
 366 : FF;
 367 : FF;
 368 : FF;
 369 : FF;
 36A : FF;
 36B : FF;
 36C : FF;
 36D : FF;
 36E : FF;
 36F : FF;
 370 : FF;
 371 : FF;
 372 : FF;
 373 : FF;
 374 : FF;
 375 : FF;
 376 : FF;
 377 : FF;
 378 : FF;
 379 : FF;
 37A : FF;
 37B : FF;
 37C : FF;
 37D : FF;
 37E : FF;
 37F : FF;
 380 : FF;
 381 : FF;
 382 : FF;
 383 : FF;
 384 : FF;
 385 : FF;
 386 : FF;
 387 : FF;
 388 : FF;
 389 : FF;
 38A : FF;
 38B : FF;
 38C : FF;
 38D : FF;
 38E : FF;
 38F : FF;
 390 : FF;
 391 : FF;
 392 : FF;
 393 : FF;
 394 : FF;
 395 : FF;
 396 : FF;
 397 : FF;
 398 : FF;
 399 : FF;
 39A : FF;
 39B : FF;
 39C : FF;
 39D : FF;
 39E : FF;
 39F : FF;
 3A0 : FF;
 3A1 : FF;
 3A2 : FF;
 3A3 : FF;
 3A4 : FF;
 3A5 : FF;
 3A6 : FF;
 3A7 : FF;
 3A8 : FF;
 3A9 : FF;
 3AA : FF;
 3AB : FF;
 3AC : FF;
 3AD : FF;
 3AE : FF;
 3AF : FF;
 3B0 : FF;
 3B1 : FF;
 3B2 : FF;
 3B3 : FF;
 3B4 : FF;
 3B5 : FF;
 3B6 : FF;
 3B7 : FF;
 3B8 : FF;
 3B9 : FF;
 3BA : FF;
 3BB : FF;
 3BC : FF;
 3BD : FF;
 3BE : FF;
 3BF : FF;
 3C0 : FF;
 3C1 : FF;
 3C2 : FF;
 3C3 : FF;
 3C4 : FF;
 3C5 : FF;
 3C6 : FF;
 3C7 : FF;
 3C8 : FF;
 3C9 : FF;
 3CA : FF;
 3CB : FF;
 3CC : FF;
 3CD : FF;
 3CE : FF;
 3CF : FF;
 3D0 : FF;
 3D1 : FF;
 3D2 : FF;
 3D3 : FF;
 3D4 : FF;
 3D5 : FF;
 3D6 : FF;
 3D7 : FF;
 3D8 : FF;
 3D9 : FF;
 3DA : FF;
 3DB : FF;
 3DC : FF;
 3DD : FF;
 3DE : FF;
 3DF : FF;
 3E0 : FF;
 3E1 : FF;
 3E2 : FF;
 3E3 : FF;
 3E4 : FF;
 3E5 : FF;
 3E6 : FF;
 3E7 : FF;
 3E8 : FF;
 3E9 : FF;
 3EA : FF;
 3EB : FF;
 3EC : FF;
 3ED : FF;
 3EE : FF;
 3EF : FF;
 3F0 : FF;
 3F1 : FF;
 3F2 : FF;
 3F3 : FF;
 3F4 : FF;
 3F5 : FF;
 3F6 : FF;
 3F7 : FF;
 3F8 : FF;
 3F9 : FF;
 3FA : FF;
 3FB : FF;
 3FC : FF;
 3FD : FF;
 3FE : FF;
 3FF : FF;
 400 : FF;
 401 : FF;
 402 : FF;
 403 : FF;
 404 : FF;
 405 : FF;
 406 : FF;
 407 : FF;
 408 : FF;
 409 : FF;
 40A : FF;
 40B : FF;
 40C : FF;
 40D : FF;
 40E : FF;
 40F : FF;
 410 : FF;
 411 : FF;
 412 : FF;
 413 : FF;
 414 : FF;
 415 : FF;
 416 : FF;
 417 : FF;
 418 : FF;
 419 : FF;
 41A : FF;
 41B : FF;
 41C : FF;
 41D : FF;
 41E : FF;
 41F : FF;
 420 : FF;
 421 : FF;
 422 : FF;
 423 : FF;
 424 : FF;
 425 : FF;
 426 : FF;
 427 : FE;
 428 : FE;
 429 : FE;
 42A : FE;
 42B : FE;
 42C : FF;
 42D : FF;
 42E : FF;
 42F : FF;
 430 : FF;
 431 : FF;
 432 : FF;
 433 : FF;
 434 : FF;
 435 : FF;
 436 : FF;
 437 : FF;
 438 : FF;
 439 : FF;
 43A : FF;
 43B : FF;
 43C : FF;
 43D : FF;
 43E : FF;
 43F : FF;
 440 : FF;
 441 : FF;
 442 : FF;
 443 : FF;
 444 : FF;
 445 : FF;
 446 : FF;
 447 : FF;
 448 : FF;
 449 : FF;
 44A : FF;
 44B : FF;
 44C : FF;
 44D : FF;
 44E : FF;
 44F : FF;
 450 : FF;
 451 : FF;
 452 : FF;
 453 : FF;
 454 : FF;
 455 : FF;
 456 : FF;
 457 : FF;
 458 : FF;
 459 : FF;
 45A : FF;
 45B : FF;
 45C : FF;
 45D : FF;
 45E : FF;
 45F : FF;
 460 : FF;
 461 : FF;
 462 : FF;
 463 : FF;
 464 : FF;
 465 : FF;
 466 : FF;
 467 : FF;
 468 : FF;
 469 : FF;
 46A : FF;
 46B : FF;
 46C : FF;
 46D : FF;
 46E : FF;
 46F : FF;
 470 : FF;
 471 : FF;
 472 : FF;
 473 : FF;
 474 : FF;
 475 : FF;
 476 : FF;
 477 : FF;
 478 : FF;
 479 : FF;
 47A : FF;
 47B : FF;
 47C : FF;
 47D : FF;
 47E : FF;
 47F : FF;
 480 : FF;
 481 : FF;
 482 : FF;
 483 : FF;
 484 : FF;
 485 : FF;
 486 : FF;
 487 : FF;
 488 : FF;
 489 : FF;
 48A : FF;
 48B : FF;
 48C : FF;
 48D : FF;
 48E : FF;
 48F : FE;
 490 : FE;
 491 : FE;
 492 : FE;
 493 : FE;
 494 : FE;
 495 : FF;
 496 : FE;
 497 : FE;
 498 : FE;
 499 : FE;
 49A : FE;
 49B : FF;
 49C : FE;
 49D : FE;
 49E : FE;
 49F : FF;
 4A0 : FF;
 4A1 : FF;
 4A2 : FF;
 4A3 : FF;
 4A4 : FF;
 4A5 : FF;
 4A6 : FF;
 4A7 : FF;
 4A8 : FF;
 4A9 : FF;
 4AA : FF;
 4AB : FF;
 4AC : FF;
 4AD : FF;
 4AE : FF;
 4AF : FF;
 4B0 : FF;
 4B1 : FF;
 4B2 : FF;
 4B3 : FF;
 4B4 : FF;
 4B5 : FF;
 4B6 : FF;
 4B7 : FF;
 4B8 : FF;
 4B9 : FF;
 4BA : FF;
 4BB : FF;
 4BC : FF;
 4BD : FF;
 4BE : FF;
 4BF : FF;
 4C0 : FF;
 4C1 : FF;
 4C2 : FF;
 4C3 : FF;
 4C4 : FF;
 4C5 : FF;
 4C6 : FF;
 4C7 : FF;
 4C8 : FF;
 4C9 : FF;
 4CA : FF;
 4CB : FF;
 4CC : FF;
 4CD : FF;
 4CE : FF;
 4CF : FF;
 4D0 : FF;
 4D1 : FF;
 4D2 : FF;
 4D3 : FF;
 4D4 : FF;
 4D5 : FF;
 4D6 : FF;
 4D7 : FF;
 4D8 : FF;
 4D9 : FF;
 4DA : FF;
 4DB : FF;
 4DC : FF;
 4DD : FF;
 4DE : FF;
 4DF : FF;
 4E0 : FF;
 4E1 : FF;
 4E2 : FF;
 4E3 : FF;
 4E4 : FF;
 4E5 : FF;
 4E6 : FF;
 4E7 : FF;
 4E8 : FF;
 4E9 : FF;
 4EA : FF;
 4EB : FF;
 4EC : FF;
 4ED : FF;
 4EE : FF;
 4EF : FF;
 4F0 : FF;
 4F1 : FF;
 4F2 : FF;
 4F3 : FF;
 4F4 : FF;
 4F5 : FF;
 4F6 : FF;
 4F7 : FF;
 4F8 : FF;
 4F9 : FF;
 4FA : FF;
 4FB : FF;
 4FC : FF;
 4FD : FF;
 4FE : FF;
 4FF : FF;
 500 : FF;
 501 : FF;
 502 : FF;
 503 : FF;
 504 : FF;
 505 : FF;
 506 : FF;
 507 : FF;
 508 : FF;
 509 : FF;
 50A : FF;
 50B : FF;
 50C : FF;
 50D : FF;
 50E : FF;
 50F : FF;
 510 : FF;
 511 : FF;
 512 : FF;
 513 : FF;
 514 : FF;
 515 : FF;
 516 : FF;
 517 : FF;
 518 : FF;
 519 : FF;
 51A : FF;
 51B : FF;
 51C : FF;
 51D : FF;
 51E : FF;
 51F : FF;
 520 : FF;
 521 : FF;
 522 : FF;
 523 : FF;
 524 : FF;
 525 : FF;
 526 : FF;
 527 : FF;
 528 : FF;
 529 : FF;
 52A : FF;
 52B : FF;
 52C : FF;
 52D : FF;
 52E : FF;
 52F : FF;
 530 : FF;
 531 : FF;
 532 : FF;
 533 : FF;
 534 : FF;
 535 : FF;
 536 : FF;
 537 : FF;
 538 : FF;
 539 : FF;
 53A : FF;
 53B : FF;
 53C : FF;
 53D : FF;
 53E : FF;
 53F : FF;
 540 : FF;
 541 : FF;
 542 : FF;
 543 : FF;
 544 : FF;
 545 : FF;
 546 : FF;
 547 : FF;
 548 : FF;
 549 : FF;
 54A : FF;
 54B : FF;
 54C : FF;
 54D : FF;
 54E : FF;
 54F : FF;
 550 : FF;
 551 : FF;
 552 : FF;
 553 : FF;
 554 : FF;
 555 : FF;
 556 : FF;
 557 : FF;
 558 : FF;
 559 : FF;
 55A : FF;
 55B : FF;
 55C : FF;
 55D : FF;
 55E : FF;
 55F : FE;
 560 : FE;
 561 : FE;
 562 : FF;
 563 : FF;
 564 : FF;
 565 : FF;
 566 : FE;
 567 : FE;
 568 : FE;
 569 : FE;
 56A : FE;
 56B : FE;
 56C : FE;
 56D : FF;
 56E : FF;
 56F : FF;
 570 : FF;
 571 : FF;
 572 : FF;
 573 : FF;
 574 : FF;
 575 : FF;
 576 : FF;
 577 : FF;
 578 : FF;
 579 : FF;
 57A : FF;
 57B : FF;
 57C : FF;
 57D : FF;
 57E : FF;
 57F : FF;
 580 : FF;
 581 : FF;
 582 : FF;
 583 : FF;
 584 : FF;
 585 : FF;
 586 : FF;
 587 : FF;
 588 : FF;
 589 : FF;
 58A : FF;
 58B : FF;
 58C : FF;
 58D : FF;
 58E : FF;
 58F : FF;
 590 : FF;
 591 : FF;
 592 : FF;
 593 : FF;
 594 : FF;
 595 : FF;
 596 : FF;
 597 : FF;
 598 : FF;
 599 : FF;
 59A : FF;
 59B : FF;
 59C : FF;
 59D : FF;
 59E : FF;
 59F : FF;
 5A0 : FF;
 5A1 : FF;
 5A2 : FF;
 5A3 : FF;
 5A4 : FF;
 5A5 : FF;
 5A6 : FF;
 5A7 : FF;
 5A8 : FF;
 5A9 : FF;
 5AA : FF;
 5AB : FF;
 5AC : FF;
 5AD : FF;
 5AE : FF;
 5AF : FF;
 5B0 : FF;
 5B1 : FF;
 5B2 : FF;
 5B3 : FF;
 5B4 : FF;
 5B5 : FF;
 5B6 : FF;
 5B7 : FF;
 5B8 : FF;
 5B9 : FF;
 5BA : FF;
 5BB : FF;
 5BC : FF;
 5BD : FF;
 5BE : FF;
 5BF : FF;
 5C0 : FF;
 5C1 : FF;
 5C2 : FF;
 5C3 : FF;
 5C4 : FF;
 5C5 : FF;
 5C6 : FF;
 5C7 : FF;
 5C8 : FF;
 5C9 : FF;
 5CA : FF;
 5CB : FF;
 5CC : FF;
 5CD : FF;
 5CE : FF;
 5CF : FE;
 5D0 : FE;
 5D1 : FE;
 5D2 : FE;
 5D3 : FE;
 5D4 : FE;
 5D5 : FE;
 5D6 : FF;
 5D7 : FE;
 5D8 : FE;
 5D9 : FE;
 5DA : FE;
 5DB : FE;
 5DC : FF;
 5DD : FE;
 5DE : FF;
 5DF : FF;
 5E0 : FF;
 5E1 : FF;
 5E2 : FF;
 5E3 : FF;
 5E4 : FF;
 5E5 : FF;
 5E6 : FF;
 5E7 : FF;
 5E8 : FF;
 5E9 : FF;
 5EA : FF;
 5EB : FF;
 5EC : FF;
 5ED : FF;
 5EE : FF;
 5EF : FF;
 5F0 : FF;
 5F1 : FF;
 5F2 : FF;
 5F3 : FF;
 5F4 : FF;
 5F5 : FF;
 5F6 : FF;
 5F7 : FF;
 5F8 : FF;
 5F9 : FF;
 5FA : FF;
 5FB : FF;
 5FC : FF;
 5FD : FF;
 5FE : FF;
 5FF : FF;
 600 : FF;
 601 : FF;
 602 : FF;
 603 : FF;
 604 : FF;
 605 : FF;
 606 : FF;
 607 : FF;
 608 : FF;
 609 : FF;
 60A : FF;
 60B : FF;
 60C : FF;
 60D : FF;
 60E : FF;
 60F : FF;
 610 : FF;
 611 : FF;
 612 : FF;
 613 : FF;
 614 : FF;
 615 : FF;
 616 : FF;
 617 : FF;
 618 : FF;
 619 : FF;
 61A : FF;
 61B : FF;
 61C : FF;
 61D : FF;
 61E : FF;
 61F : FF;
 620 : FF;
 621 : FF;
 622 : FF;
 623 : FF;
 624 : FF;
 625 : FF;
 626 : FF;
 627 : FF;
 628 : FF;
 629 : FF;
 62A : FF;
 62B : FF;
 62C : FF;
 62D : FF;
 62E : FF;
 62F : FF;
 630 : FF;
 631 : FF;
 632 : FF;
 633 : FF;
 634 : FF;
 635 : FF;
 636 : FF;
 637 : FF;
 638 : FF;
 639 : FF;
 63A : FF;
 63B : FF;
 63C : FF;
 63D : FF;
 63E : FF;
 63F : FF;
 640 : FF;
 641 : FF;
 642 : FF;
 643 : FF;
 644 : FF;
 645 : FF;
 646 : FF;
 647 : FF;
 648 : FF;
 649 : FF;
 64A : FF;
 64B : FF;
 64C : FF;
 64D : FF;
 64E : FF;
 64F : FF;
 650 : FF;
 651 : FF;
 652 : FF;
 653 : FF;
 654 : FF;
 655 : FF;
 656 : FF;
 657 : FF;
 658 : FF;
 659 : FF;
 65A : FF;
 65B : FF;
 65C : FF;
 65D : FF;
 65E : FF;
 65F : FF;
 660 : FF;
 661 : FF;
 662 : FF;
 663 : FF;
 664 : FF;
 665 : FF;
 666 : FF;
 667 : FF;
 668 : FF;
 669 : FF;
 66A : FF;
 66B : FF;
 66C : FF;
 66D : FF;
 66E : FF;
 66F : FF;
 670 : FF;
 671 : FF;
 672 : FF;
 673 : FF;
 674 : FF;
 675 : FF;
 676 : FF;
 677 : FF;
 678 : FF;
 679 : FF;
 67A : FF;
 67B : FF;
 67C : FF;
 67D : FF;
 67E : FF;
 67F : FF;
 680 : FF;
 681 : FF;
 682 : FF;
 683 : FF;
 684 : FF;
 685 : FF;
 686 : FF;
 687 : FF;
 688 : FF;
 689 : FF;
 68A : FF;
 68B : FF;
 68C : FF;
 68D : FF;
 68E : FF;
 68F : FF;
 690 : FF;
 691 : FF;
 692 : FF;
 693 : FF;
 694 : FF;
 695 : FF;
 696 : FF;
 697 : FF;
 698 : FF;
 699 : FF;
 69A : FF;
 69B : FF;
 69C : FF;
 69D : FF;
 69E : FF;
 69F : FE;
 6A0 : FE;
 6A1 : FE;
 6A2 : FF;
 6A3 : FF;
 6A4 : FE;
 6A5 : FE;
 6A6 : FE;
 6A7 : FE;
 6A8 : FE;
 6A9 : FE;
 6AA : FE;
 6AB : FE;
 6AC : FE;
 6AD : FE;
 6AE : FF;
 6AF : FF;
 6B0 : FF;
 6B1 : FF;
 6B2 : FF;
 6B3 : FF;
 6B4 : FF;
 6B5 : FF;
 6B6 : FF;
 6B7 : FF;
 6B8 : FF;
 6B9 : FF;
 6BA : FF;
 6BB : FF;
 6BC : FF;
 6BD : FF;
 6BE : FF;
 6BF : FF;
 6C0 : FF;
 6C1 : FF;
 6C2 : FF;
 6C3 : FF;
 6C4 : FF;
 6C5 : FF;
 6C6 : FF;
 6C7 : FF;
 6C8 : FF;
 6C9 : FF;
 6CA : FF;
 6CB : FF;
 6CC : FF;
 6CD : FF;
 6CE : FF;
 6CF : FF;
 6D0 : FF;
 6D1 : FF;
 6D2 : FF;
 6D3 : FF;
 6D4 : FF;
 6D5 : FF;
 6D6 : FF;
 6D7 : FF;
 6D8 : FF;
 6D9 : FF;
 6DA : FF;
 6DB : FF;
 6DC : FF;
 6DD : FF;
 6DE : FF;
 6DF : FF;
 6E0 : FF;
 6E1 : FF;
 6E2 : FF;
 6E3 : FF;
 6E4 : FF;
 6E5 : FF;
 6E6 : FF;
 6E7 : FF;
 6E8 : FF;
 6E9 : FF;
 6EA : FF;
 6EB : FF;
 6EC : FF;
 6ED : FF;
 6EE : FF;
 6EF : FF;
 6F0 : FF;
 6F1 : FF;
 6F2 : FF;
 6F3 : FF;
 6F4 : FF;
 6F5 : FF;
 6F6 : FF;
 6F7 : FF;
 6F8 : FF;
 6F9 : FF;
 6FA : FF;
 6FB : FF;
 6FC : FF;
 6FD : FF;
 6FE : FF;
 6FF : FF;
 700 : FF;
 701 : FF;
 702 : FF;
 703 : FF;
 704 : FF;
 705 : FF;
 706 : FF;
 707 : FF;
 708 : FF;
 709 : FE;
 70A : FF;
 70B : FF;
 70C : FF;
 70D : FF;
 70E : FF;
 70F : FE;
 710 : FE;
 711 : FE;
 712 : FE;
 713 : FE;
 714 : FE;
 715 : FE;
 716 : FE;
 717 : FF;
 718 : FE;
 719 : FE;
 71A : FE;
 71B : FE;
 71C : FE;
 71D : FE;
 71E : FE;
 71F : FE;
 720 : FF;
 721 : FF;
 722 : FF;
 723 : FF;
 724 : FF;
 725 : FF;
 726 : FF;
 727 : FF;
 728 : FF;
 729 : FF;
 72A : FF;
 72B : FF;
 72C : FF;
 72D : FF;
 72E : FF;
 72F : FF;
 730 : FF;
 731 : FF;
 732 : FF;
 733 : FF;
 734 : FF;
 735 : FF;
 736 : FF;
 737 : FF;
 738 : FF;
 739 : FF;
 73A : FF;
 73B : FF;
 73C : FF;
 73D : FF;
 73E : FF;
 73F : FF;
 740 : FF;
 741 : FF;
 742 : FF;
 743 : FF;
 744 : FF;
 745 : FF;
 746 : FF;
 747 : FF;
 748 : FF;
 749 : FF;
 74A : FF;
 74B : FF;
 74C : FF;
 74D : FF;
 74E : FF;
 74F : FF;
 750 : FF;
 751 : FF;
 752 : FF;
 753 : FF;
 754 : FF;
 755 : FF;
 756 : FF;
 757 : FF;
 758 : FF;
 759 : FF;
 75A : FF;
 75B : FF;
 75C : FF;
 75D : FF;
 75E : FF;
 75F : FF;
 760 : FF;
 761 : FF;
 762 : FF;
 763 : FF;
 764 : FF;
 765 : FF;
 766 : FF;
 767 : FF;
 768 : FF;
 769 : FF;
 76A : FF;
 76B : FF;
 76C : FF;
 76D : FF;
 76E : FF;
 76F : FF;
 770 : FF;
 771 : FF;
 772 : FF;
 773 : FF;
 774 : FF;
 775 : FF;
 776 : FF;
 777 : FF;
 778 : FF;
 779 : FF;
 77A : FF;
 77B : FF;
 77C : FF;
 77D : FF;
 77E : FF;
 77F : FF;
 780 : FF;
 781 : FF;
 782 : FF;
 783 : FF;
 784 : FF;
 785 : FF;
 786 : FF;
 787 : FF;
 788 : FF;
 789 : FF;
 78A : FF;
 78B : FF;
 78C : FF;
 78D : FF;
 78E : FF;
 78F : FF;
 790 : FF;
 791 : FF;
 792 : FF;
 793 : FF;
 794 : FF;
 795 : FF;
 796 : FF;
 797 : FF;
 798 : FF;
 799 : FF;
 79A : FF;
 79B : FF;
 79C : FF;
 79D : FF;
 79E : FF;
 79F : FF;
 7A0 : FF;
 7A1 : FF;
 7A2 : FF;
 7A3 : FF;
 7A4 : FF;
 7A5 : FF;
 7A6 : FF;
 7A7 : FF;
 7A8 : FF;
 7A9 : FF;
 7AA : FF;
 7AB : FF;
 7AC : FF;
 7AD : FF;
 7AE : FF;
 7AF : FF;
 7B0 : FF;
 7B1 : FF;
 7B2 : FF;
 7B3 : FF;
 7B4 : FF;
 7B5 : FF;
 7B6 : FF;
 7B7 : FF;
 7B8 : FF;
 7B9 : FF;
 7BA : FF;
 7BB : FF;
 7BC : FF;
 7BD : FF;
 7BE : FF;
 7BF : FF;
 7C0 : FF;
 7C1 : FF;
 7C2 : FF;
 7C3 : FF;
 7C4 : FF;
 7C5 : FF;
 7C6 : FF;
 7C7 : FF;
 7C8 : FF;
 7C9 : FF;
 7CA : FF;
 7CB : FF;
 7CC : FF;
 7CD : FF;
 7CE : FF;
 7CF : FF;
 7D0 : FF;
 7D1 : FF;
 7D2 : FF;
 7D3 : FF;
 7D4 : FF;
 7D5 : FF;
 7D6 : FF;
 7D7 : FF;
 7D8 : FF;
 7D9 : FF;
 7DA : FF;
 7DB : FF;
 7DC : FF;
 7DD : FF;
 7DE : FF;
 7DF : FE;
 7E0 : FE;
 7E1 : FE;
 7E2 : FF;
 7E3 : FF;
 7E4 : FE;
 7E5 : FE;
 7E6 : FE;
 7E7 : FE;
 7E8 : FE;
 7E9 : FE;
 7EA : FE;
 7EB : FE;
 7EC : FE;
 7ED : FF;
 7EE : FF;
 7EF : FF;
 7F0 : FF;
 7F1 : FF;
 7F2 : FF;
 7F3 : FF;
 7F4 : FF;
 7F5 : FF;
 7F6 : FF;
 7F7 : FF;
 7F8 : FF;
 7F9 : FF;
 7FA : FF;
 7FB : FF;
 7FC : FF;
 7FD : FF;
 7FE : FF;
 7FF : FF;
 800 : FF;
 801 : FF;
 802 : FF;
 803 : FF;
 804 : FF;
 805 : FF;
 806 : FF;
 807 : FF;
 808 : FF;
 809 : FF;
 80A : FF;
 80B : FF;
 80C : FF;
 80D : FF;
 80E : FF;
 80F : FF;
 810 : FF;
 811 : FF;
 812 : FF;
 813 : FF;
 814 : FF;
 815 : FF;
 816 : FF;
 817 : FF;
 818 : FF;
 819 : FF;
 81A : FF;
 81B : FF;
 81C : FF;
 81D : FF;
 81E : FF;
 81F : FF;
 820 : FF;
 821 : FF;
 822 : FF;
 823 : FF;
 824 : FF;
 825 : FF;
 826 : FF;
 827 : FF;
 828 : FF;
 829 : FF;
 82A : FF;
 82B : FF;
 82C : FF;
 82D : FF;
 82E : FF;
 82F : FF;
 830 : FF;
 831 : FF;
 832 : FF;
 833 : FF;
 834 : FF;
 835 : FF;
 836 : FF;
 837 : FF;
 838 : FF;
 839 : FF;
 83A : FF;
 83B : FF;
 83C : FF;
 83D : FF;
 83E : FF;
 83F : FF;
 840 : FF;
 841 : FF;
 842 : FF;
 843 : FF;
 844 : FF;
 845 : FE;
 846 : FE;
 847 : FE;
 848 : FE;
 849 : FE;
 84A : FE;
 84B : FE;
 84C : FE;
 84D : FF;
 84E : FF;
 84F : FF;
 850 : FE;
 851 : FE;
 852 : FF;
 853 : FF;
 854 : FF;
 855 : FF;
 856 : FF;
 857 : FF;
 858 : FE;
 859 : FE;
 85A : FE;
 85B : FE;
 85C : FE;
 85D : FD;
 85E : FD;
 85F : FE;
 860 : FF;
 861 : FF;
 862 : FF;
 863 : FF;
 864 : FF;
 865 : FF;
 866 : FF;
 867 : FF;
 868 : FF;
 869 : FF;
 86A : FF;
 86B : FF;
 86C : FF;
 86D : FF;
 86E : FF;
 86F : FF;
 870 : FF;
 871 : FF;
 872 : FF;
 873 : FF;
 874 : FF;
 875 : FF;
 876 : FF;
 877 : FF;
 878 : FF;
 879 : FF;
 87A : FF;
 87B : FF;
 87C : FF;
 87D : FF;
 87E : FF;
 87F : FF;
 880 : FF;
 881 : FF;
 882 : FF;
 883 : FF;
 884 : FF;
 885 : FF;
 886 : FF;
 887 : FF;
 888 : FF;
 889 : FF;
 88A : FF;
 88B : FF;
 88C : FF;
 88D : FF;
 88E : FF;
 88F : FF;
 890 : FF;
 891 : FF;
 892 : FF;
 893 : FF;
 894 : FF;
 895 : FF;
 896 : FF;
 897 : FF;
 898 : FF;
 899 : FF;
 89A : FF;
 89B : FF;
 89C : FF;
 89D : FF;
 89E : FF;
 89F : FF;
 8A0 : FF;
 8A1 : FF;
 8A2 : FF;
 8A3 : FF;
 8A4 : FF;
 8A5 : FF;
 8A6 : FF;
 8A7 : FF;
 8A8 : FF;
 8A9 : FF;
 8AA : FF;
 8AB : FF;
 8AC : FF;
 8AD : FF;
 8AE : FF;
 8AF : FF;
 8B0 : FF;
 8B1 : FF;
 8B2 : FF;
 8B3 : FF;
 8B4 : FF;
 8B5 : FF;
 8B6 : FF;
 8B7 : FF;
 8B8 : FF;
 8B9 : FF;
 8BA : FF;
 8BB : FF;
 8BC : FF;
 8BD : FF;
 8BE : FF;
 8BF : FF;
 8C0 : FF;
 8C1 : FF;
 8C2 : FF;
 8C3 : FF;
 8C4 : FF;
 8C5 : FF;
 8C6 : FF;
 8C7 : FF;
 8C8 : FF;
 8C9 : FF;
 8CA : FF;
 8CB : FF;
 8CC : FF;
 8CD : FF;
 8CE : FF;
 8CF : FF;
 8D0 : FF;
 8D1 : FF;
 8D2 : FF;
 8D3 : FF;
 8D4 : FF;
 8D5 : FF;
 8D6 : FF;
 8D7 : FF;
 8D8 : FF;
 8D9 : FF;
 8DA : FF;
 8DB : FF;
 8DC : FF;
 8DD : FF;
 8DE : FF;
 8DF : FF;
 8E0 : FF;
 8E1 : FF;
 8E2 : FF;
 8E3 : FF;
 8E4 : FF;
 8E5 : FF;
 8E6 : FF;
 8E7 : FF;
 8E8 : FF;
 8E9 : FF;
 8EA : FF;
 8EB : FF;
 8EC : FF;
 8ED : FF;
 8EE : FF;
 8EF : FF;
 8F0 : FF;
 8F1 : FF;
 8F2 : FF;
 8F3 : FF;
 8F4 : FF;
 8F5 : FF;
 8F6 : FF;
 8F7 : FF;
 8F8 : FF;
 8F9 : FF;
 8FA : FF;
 8FB : FF;
 8FC : FF;
 8FD : FF;
 8FE : FF;
 8FF : FF;
 900 : FF;
 901 : FF;
 902 : FF;
 903 : FF;
 904 : FF;
 905 : FF;
 906 : FF;
 907 : FF;
 908 : FF;
 909 : FF;
 90A : FF;
 90B : FF;
 90C : FF;
 90D : FF;
 90E : FF;
 90F : FF;
 910 : FF;
 911 : FF;
 912 : FF;
 913 : FF;
 914 : FF;
 915 : FF;
 916 : FF;
 917 : FF;
 918 : FF;
 919 : FF;
 91A : FF;
 91B : FF;
 91C : FF;
 91D : FF;
 91E : FE;
 91F : FE;
 920 : FE;
 921 : FE;
 922 : FF;
 923 : FE;
 924 : FE;
 925 : FE;
 926 : FE;
 927 : FE;
 928 : FE;
 929 : FE;
 92A : FE;
 92B : FE;
 92C : FF;
 92D : FF;
 92E : FE;
 92F : FF;
 930 : FF;
 931 : FF;
 932 : FF;
 933 : FF;
 934 : FF;
 935 : FF;
 936 : FF;
 937 : FF;
 938 : FF;
 939 : FF;
 93A : FF;
 93B : FF;
 93C : FF;
 93D : FF;
 93E : FF;
 93F : FF;
 940 : FF;
 941 : FF;
 942 : FF;
 943 : FF;
 944 : FF;
 945 : FF;
 946 : FF;
 947 : FF;
 948 : FF;
 949 : FF;
 94A : FF;
 94B : FF;
 94C : FF;
 94D : FF;
 94E : FF;
 94F : FF;
 950 : FF;
 951 : FF;
 952 : FF;
 953 : FF;
 954 : FF;
 955 : FF;
 956 : FF;
 957 : FF;
 958 : FF;
 959 : FF;
 95A : FF;
 95B : FF;
 95C : FF;
 95D : FF;
 95E : FF;
 95F : FF;
 960 : FF;
 961 : FF;
 962 : FF;
 963 : FF;
 964 : FF;
 965 : FF;
 966 : FF;
 967 : FF;
 968 : FF;
 969 : FF;
 96A : FF;
 96B : FF;
 96C : FF;
 96D : FF;
 96E : FF;
 96F : FF;
 970 : FF;
 971 : FF;
 972 : FF;
 973 : FF;
 974 : FF;
 975 : FF;
 976 : FF;
 977 : FF;
 978 : FF;
 979 : FF;
 97A : FF;
 97B : FF;
 97C : FF;
 97D : FF;
 97E : FF;
 97F : FF;
 980 : FF;
 981 : FF;
 982 : FF;
 983 : FF;
 984 : FF;
 985 : FE;
 986 : FE;
 987 : FE;
 988 : FE;
 989 : FE;
 98A : FE;
 98B : FE;
 98C : FF;
 98D : FF;
 98E : FF;
 98F : FF;
 990 : FF;
 991 : FE;
 992 : FE;
 993 : FE;
 994 : FE;
 995 : FE;
 996 : FE;
 997 : FE;
 998 : FF;
 999 : FF;
 99A : FE;
 99B : FE;
 99C : FE;
 99D : FD;
 99E : FD;
 99F : FE;
 9A0 : FF;
 9A1 : FF;
 9A2 : FF;
 9A3 : FF;
 9A4 : FF;
 9A5 : FF;
 9A6 : FF;
 9A7 : FF;
 9A8 : FF;
 9A9 : FF;
 9AA : FF;
 9AB : FF;
 9AC : FF;
 9AD : FF;
 9AE : FF;
 9AF : FF;
 9B0 : FF;
 9B1 : FF;
 9B2 : FF;
 9B3 : FF;
 9B4 : FF;
 9B5 : FF;
 9B6 : FF;
 9B7 : FF;
 9B8 : FF;
 9B9 : FF;
 9BA : FF;
 9BB : FF;
 9BC : FF;
 9BD : FF;
 9BE : FF;
 9BF : FF;
 9C0 : FF;
 9C1 : FF;
 9C2 : FF;
 9C3 : FF;
 9C4 : FF;
 9C5 : FF;
 9C6 : FF;
 9C7 : FF;
 9C8 : FF;
 9C9 : FF;
 9CA : FF;
 9CB : FF;
 9CC : FF;
 9CD : FF;
 9CE : FF;
 9CF : FF;
 9D0 : FF;
 9D1 : FF;
 9D2 : FF;
 9D3 : FF;
 9D4 : FF;
 9D5 : FF;
 9D6 : FF;
 9D7 : FF;
 9D8 : FF;
 9D9 : FF;
 9DA : FF;
 9DB : FF;
 9DC : FF;
 9DD : FF;
 9DE : FF;
 9DF : FF;
 9E0 : FF;
 9E1 : FF;
 9E2 : FF;
 9E3 : FF;
 9E4 : FF;
 9E5 : FF;
 9E6 : FF;
 9E7 : FF;
 9E8 : FF;
 9E9 : FF;
 9EA : FF;
 9EB : FF;
 9EC : FF;
 9ED : FF;
 9EE : FF;
 9EF : FF;
 9F0 : FF;
 9F1 : FF;
 9F2 : FF;
 9F3 : FF;
 9F4 : FF;
 9F5 : FF;
 9F6 : FF;
 9F7 : FF;
 9F8 : FF;
 9F9 : FF;
 9FA : FF;
 9FB : FF;
 9FC : FF;
 9FD : FF;
 9FE : FF;
 9FF : FF;
 A00 : FF;
 A01 : FF;
 A02 : FF;
 A03 : FF;
 A04 : FF;
 A05 : FF;
 A06 : FF;
 A07 : FF;
 A08 : FF;
 A09 : FF;
 A0A : FF;
 A0B : FF;
 A0C : FF;
 A0D : FF;
 A0E : FF;
 A0F : FF;
 A10 : FF;
 A11 : FF;
 A12 : FF;
 A13 : FF;
 A14 : FF;
 A15 : FF;
 A16 : FF;
 A17 : FF;
 A18 : FF;
 A19 : FF;
 A1A : FF;
 A1B : FF;
 A1C : FF;
 A1D : FF;
 A1E : FF;
 A1F : FF;
 A20 : FF;
 A21 : FF;
 A22 : FF;
 A23 : FF;
 A24 : FF;
 A25 : FF;
 A26 : FF;
 A27 : FF;
 A28 : FF;
 A29 : FF;
 A2A : FF;
 A2B : FF;
 A2C : FF;
 A2D : FF;
 A2E : FF;
 A2F : FF;
 A30 : FF;
 A31 : FF;
 A32 : FF;
 A33 : FF;
 A34 : FF;
 A35 : FF;
 A36 : FF;
 A37 : FF;
 A38 : FF;
 A39 : FF;
 A3A : FF;
 A3B : FF;
 A3C : FF;
 A3D : FF;
 A3E : FF;
 A3F : FF;
 A40 : FF;
 A41 : FF;
 A42 : FF;
 A43 : FF;
 A44 : FF;
 A45 : FF;
 A46 : FF;
 A47 : FF;
 A48 : FF;
 A49 : FF;
 A4A : FF;
 A4B : FF;
 A4C : FF;
 A4D : FF;
 A4E : FF;
 A4F : FF;
 A50 : FF;
 A51 : FF;
 A52 : FF;
 A53 : FF;
 A54 : FF;
 A55 : FF;
 A56 : FF;
 A57 : FF;
 A58 : FF;
 A59 : FF;
 A5A : FF;
 A5B : FF;
 A5C : FF;
 A5D : FF;
 A5E : FE;
 A5F : FE;
 A60 : FE;
 A61 : FF;
 A62 : FE;
 A63 : FE;
 A64 : FE;
 A65 : FE;
 A66 : FE;
 A67 : FE;
 A68 : FE;
 A69 : FB;
 A6A : F8;
 A6B : FD;
 A6C : FE;
 A6D : F9;
 A6E : FC;
 A6F : FD;
 A70 : FB;
 A71 : FA;
 A72 : FB;
 A73 : FF;
 A74 : FF;
 A75 : FF;
 A76 : FD;
 A77 : FF;
 A78 : FF;
 A79 : FF;
 A7A : FF;
 A7B : FE;
 A7C : FE;
 A7D : FE;
 A7E : FF;
 A7F : FF;
 A80 : FF;
 A81 : FF;
 A82 : FF;
 A83 : FF;
 A84 : FF;
 A85 : FF;
 A86 : FF;
 A87 : FF;
 A88 : FF;
 A89 : FF;
 A8A : FF;
 A8B : FF;
 A8C : FF;
 A8D : FF;
 A8E : FF;
 A8F : FF;
 A90 : FF;
 A91 : FF;
 A92 : FF;
 A93 : FF;
 A94 : FF;
 A95 : FF;
 A96 : FF;
 A97 : FF;
 A98 : FF;
 A99 : FF;
 A9A : FF;
 A9B : FF;
 A9C : FF;
 A9D : FF;
 A9E : FF;
 A9F : FF;
 AA0 : FF;
 AA1 : FF;
 AA2 : FF;
 AA3 : FF;
 AA4 : FF;
 AA5 : FF;
 AA6 : FF;
 AA7 : FF;
 AA8 : FF;
 AA9 : FF;
 AAA : FF;
 AAB : FF;
 AAC : FF;
 AAD : FF;
 AAE : FF;
 AAF : FF;
 AB0 : FF;
 AB1 : FF;
 AB2 : FF;
 AB3 : FF;
 AB4 : FF;
 AB5 : FF;
 AB6 : FF;
 AB7 : FF;
 AB8 : FF;
 AB9 : FF;
 ABA : FF;
 ABB : FF;
 ABC : FF;
 ABD : FF;
 ABE : FF;
 ABF : FF;
 AC0 : FF;
 AC1 : FF;
 AC2 : FF;
 AC3 : FF;
 AC4 : FF;
 AC5 : FE;
 AC6 : FE;
 AC7 : FE;
 AC8 : FD;
 AC9 : FD;
 ACA : FE;
 ACB : FF;
 ACC : FF;
 ACD : FE;
 ACE : FD;
 ACF : F8;
 AD0 : FD;
 AD1 : FE;
 AD2 : FB;
 AD3 : FA;
 AD4 : FC;
 AD5 : FD;
 AD6 : FB;
 AD7 : FE;
 AD8 : FF;
 AD9 : FE;
 ADA : FF;
 ADB : FE;
 ADC : FE;
 ADD : FC;
 ADE : FD;
 ADF : FE;
 AE0 : FF;
 AE1 : FF;
 AE2 : FF;
 AE3 : FF;
 AE4 : FF;
 AE5 : FF;
 AE6 : FF;
 AE7 : FF;
 AE8 : FF;
 AE9 : FF;
 AEA : FF;
 AEB : FF;
 AEC : FF;
 AED : FF;
 AEE : FF;
 AEF : FF;
 AF0 : FF;
 AF1 : FF;
 AF2 : FF;
 AF3 : FF;
 AF4 : FF;
 AF5 : FF;
 AF6 : FF;
 AF7 : FF;
 AF8 : FF;
 AF9 : FF;
 AFA : FF;
 AFB : FF;
 AFC : FF;
 AFD : FF;
 AFE : FF;
 AFF : FF;
 B00 : FF;
 B01 : FF;
 B02 : FF;
 B03 : FF;
 B04 : FF;
 B05 : FF;
 B06 : FF;
 B07 : FF;
 B08 : FF;
 B09 : FF;
 B0A : FF;
 B0B : FF;
 B0C : FF;
 B0D : FF;
 B0E : FF;
 B0F : FF;
 B10 : FF;
 B11 : FF;
 B12 : FF;
 B13 : FF;
 B14 : FF;
 B15 : FF;
 B16 : FF;
 B17 : FF;
 B18 : FF;
 B19 : FF;
 B1A : FF;
 B1B : FF;
 B1C : FF;
 B1D : FF;
 B1E : FF;
 B1F : FF;
 B20 : FF;
 B21 : FF;
 B22 : FF;
 B23 : FF;
 B24 : FF;
 B25 : FF;
 B26 : FF;
 B27 : FF;
 B28 : FF;
 B29 : FF;
 B2A : FF;
 B2B : FF;
 B2C : FF;
 B2D : FF;
 B2E : FF;
 B2F : FF;
 B30 : FF;
 B31 : FF;
 B32 : FF;
 B33 : FF;
 B34 : FF;
 B35 : FF;
 B36 : FF;
 B37 : FF;
 B38 : FF;
 B39 : FF;
 B3A : FF;
 B3B : FF;
 B3C : FF;
 B3D : FF;
 B3E : FF;
 B3F : FF;
 B40 : FF;
 B41 : FF;
 B42 : FF;
 B43 : FF;
 B44 : FF;
 B45 : FF;
 B46 : FF;
 B47 : FF;
 B48 : FF;
 B49 : FF;
 B4A : FF;
 B4B : FF;
 B4C : FF;
 B4D : FF;
 B4E : FF;
 B4F : FF;
 B50 : FF;
 B51 : FF;
 B52 : FF;
 B53 : FF;
 B54 : FF;
 B55 : FF;
 B56 : FF;
 B57 : FF;
 B58 : FF;
 B59 : FF;
 B5A : FF;
 B5B : FF;
 B5C : FF;
 B5D : FF;
 B5E : FF;
 B5F : FF;
 B60 : FF;
 B61 : FF;
 B62 : FF;
 B63 : FF;
 B64 : FF;
 B65 : FF;
 B66 : FF;
 B67 : FF;
 B68 : FF;
 B69 : FF;
 B6A : FF;
 B6B : FF;
 B6C : FF;
 B6D : FF;
 B6E : FF;
 B6F : FF;
 B70 : FF;
 B71 : FF;
 B72 : FF;
 B73 : FF;
 B74 : FF;
 B75 : FF;
 B76 : FF;
 B77 : FF;
 B78 : FF;
 B79 : FF;
 B7A : FF;
 B7B : FF;
 B7C : FF;
 B7D : FF;
 B7E : FF;
 B7F : FF;
 B80 : FF;
 B81 : FF;
 B82 : FF;
 B83 : FF;
 B84 : FF;
 B85 : FF;
 B86 : FF;
 B87 : FF;
 B88 : FF;
 B89 : FF;
 B8A : FF;
 B8B : FF;
 B8C : FF;
 B8D : FF;
 B8E : FF;
 B8F : FF;
 B90 : FF;
 B91 : FF;
 B92 : FF;
 B93 : FF;
 B94 : FF;
 B95 : FF;
 B96 : FF;
 B97 : FF;
 B98 : FF;
 B99 : FF;
 B9A : FF;
 B9B : FF;
 B9C : FF;
 B9D : FF;
 B9E : FE;
 B9F : FE;
 BA0 : FE;
 BA1 : FF;
 BA2 : FE;
 BA3 : FE;
 BA4 : FE;
 BA5 : FE;
 BA6 : FE;
 BA7 : FC;
 BA8 : FE;
 BA9 : FA;
 BAA : F8;
 BAB : FE;
 BAC : FE;
 BAD : FA;
 BAE : FD;
 BAF : FF;
 BB0 : FC;
 BB1 : FB;
 BB2 : FC;
 BB3 : FE;
 BB4 : FF;
 BB5 : FF;
 BB6 : FE;
 BB7 : FF;
 BB8 : FF;
 BB9 : FF;
 BBA : FF;
 BBB : FE;
 BBC : FE;
 BBD : FE;
 BBE : FE;
 BBF : FF;
 BC0 : FF;
 BC1 : FF;
 BC2 : FF;
 BC3 : FF;
 BC4 : FF;
 BC5 : FF;
 BC6 : FF;
 BC7 : FF;
 BC8 : FF;
 BC9 : FF;
 BCA : FF;
 BCB : FF;
 BCC : FF;
 BCD : FF;
 BCE : FF;
 BCF : FF;
 BD0 : FF;
 BD1 : FF;
 BD2 : FF;
 BD3 : FF;
 BD4 : FF;
 BD5 : FF;
 BD6 : FF;
 BD7 : FF;
 BD8 : FF;
 BD9 : FF;
 BDA : FF;
 BDB : FF;
 BDC : FF;
 BDD : FF;
 BDE : FF;
 BDF : FF;
 BE0 : FF;
 BE1 : FF;
 BE2 : FF;
 BE3 : FF;
 BE4 : FF;
 BE5 : FF;
 BE6 : FF;
 BE7 : FF;
 BE8 : FF;
 BE9 : FF;
 BEA : FF;
 BEB : FF;
 BEC : FF;
 BED : FF;
 BEE : FF;
 BEF : FF;
 BF0 : FF;
 BF1 : FF;
 BF2 : FF;
 BF3 : FF;
 BF4 : FF;
 BF5 : FF;
 BF6 : FF;
 BF7 : FF;
 BF8 : FF;
 BF9 : FF;
 BFA : FF;
 BFB : FF;
 BFC : FF;
 BFD : FF;
 BFE : FF;
 BFF : FF;
 C00 : FF;
 C01 : FF;
 C02 : FF;
 C03 : FF;
 C04 : FF;
 C05 : FE;
 C06 : FE;
 C07 : FE;
 C08 : FE;
 C09 : FE;
 C0A : FF;
 C0B : FF;
 C0C : FD;
 C0D : FD;
 C0E : FC;
 C0F : FD;
 C10 : FE;
 C11 : FC;
 C12 : FA;
 C13 : FB;
 C14 : FC;
 C15 : FD;
 C16 : FA;
 C17 : FE;
 C18 : FF;
 C19 : FE;
 C1A : FE;
 C1B : FF;
 C1C : FE;
 C1D : FD;
 C1E : FE;
 C1F : FE;
 C20 : FF;
 C21 : FF;
 C22 : FF;
 C23 : FF;
 C24 : FF;
 C25 : FF;
 C26 : FF;
 C27 : FF;
 C28 : FF;
 C29 : FF;
 C2A : FF;
 C2B : FF;
 C2C : FF;
 C2D : FF;
 C2E : FF;
 C2F : FF;
 C30 : FF;
 C31 : FF;
 C32 : FF;
 C33 : FF;
 C34 : FF;
 C35 : FF;
 C36 : FF;
 C37 : FF;
 C38 : FF;
 C39 : FF;
 C3A : FF;
 C3B : FF;
 C3C : FF;
 C3D : FF;
 C3E : FF;
 C3F : FF;
 C40 : FF;
 C41 : FF;
 C42 : FF;
 C43 : FF;
 C44 : FF;
 C45 : FF;
 C46 : FF;
 C47 : FF;
 C48 : FF;
 C49 : FF;
 C4A : FF;
 C4B : FF;
 C4C : FF;
 C4D : FF;
 C4E : FF;
 C4F : FF;
 C50 : FF;
 C51 : FF;
 C52 : FF;
 C53 : FF;
 C54 : FF;
 C55 : FF;
 C56 : FF;
 C57 : FF;
 C58 : FF;
 C59 : FF;
 C5A : FF;
 C5B : FF;
 C5C : FF;
 C5D : FF;
 C5E : FF;
 C5F : FF;
 C60 : FF;
 C61 : FF;
 C62 : FF;
 C63 : FF;
 C64 : FF;
 C65 : FF;
 C66 : FF;
 C67 : FF;
 C68 : FF;
 C69 : FF;
 C6A : FF;
 C6B : FF;
 C6C : FF;
 C6D : FF;
 C6E : FF;
 C6F : FF;
 C70 : FF;
 C71 : FF;
 C72 : FF;
 C73 : FF;
 C74 : FF;
 C75 : FF;
 C76 : FF;
 C77 : FF;
 C78 : FF;
 C79 : FF;
 C7A : FF;
 C7B : FF;
 C7C : FF;
 C7D : FF;
 C7E : FF;
 C7F : FF;
 C80 : FF;
 C81 : FF;
 C82 : FF;
 C83 : FF;
 C84 : FF;
 C85 : FF;
 C86 : FF;
 C87 : FF;
 C88 : FF;
 C89 : FF;
 C8A : FF;
 C8B : FF;
 C8C : FF;
 C8D : FF;
 C8E : FF;
 C8F : FF;
 C90 : FF;
 C91 : FF;
 C92 : FF;
 C93 : FF;
 C94 : FF;
 C95 : FF;
 C96 : FF;
 C97 : FF;
 C98 : FF;
 C99 : FF;
 C9A : FF;
 C9B : FF;
 C9C : FF;
 C9D : FF;
 C9E : FF;
 C9F : FF;
 CA0 : FF;
 CA1 : FF;
 CA2 : FF;
 CA3 : FF;
 CA4 : FF;
 CA5 : FF;
 CA6 : FF;
 CA7 : FF;
 CA8 : FF;
 CA9 : FF;
 CAA : FF;
 CAB : FF;
 CAC : FF;
 CAD : FF;
 CAE : FF;
 CAF : FF;
 CB0 : FF;
 CB1 : FF;
 CB2 : FF;
 CB3 : FF;
 CB4 : FF;
 CB5 : FF;
 CB6 : FF;
 CB7 : FF;
 CB8 : FF;
 CB9 : FF;
 CBA : FF;
 CBB : FF;
 CBC : FF;
 CBD : FF;
 CBE : FF;
 CBF : FF;
 CC0 : FF;
 CC1 : FF;
 CC2 : FF;
 CC3 : FF;
 CC4 : FF;
 CC5 : FF;
 CC6 : FF;
 CC7 : FF;
 CC8 : FF;
 CC9 : FF;
 CCA : FF;
 CCB : FF;
 CCC : FF;
 CCD : FF;
 CCE : FF;
 CCF : FF;
 CD0 : FF;
 CD1 : FF;
 CD2 : FF;
 CD3 : FF;
 CD4 : FF;
 CD5 : FF;
 CD6 : FF;
 CD7 : FF;
 CD8 : FF;
 CD9 : FF;
 CDA : FF;
 CDB : FF;
 CDC : FF;
 CDD : FF;
 CDE : FE;
 CDF : FE;
 CE0 : FE;
 CE1 : FF;
 CE2 : FE;
 CE3 : FE;
 CE4 : FE;
 CE5 : FE;
 CE6 : FE;
 CE7 : FC;
 CE8 : FD;
 CE9 : F9;
 CEA : F9;
 CEB : FD;
 CEC : FD;
 CED : FA;
 CEE : FE;
 CEF : FE;
 CF0 : FE;
 CF1 : FC;
 CF2 : FC;
 CF3 : FD;
 CF4 : FF;
 CF5 : FF;
 CF6 : FF;
 CF7 : FF;
 CF8 : FF;
 CF9 : FE;
 CFA : FE;
 CFB : FE;
 CFC : FE;
 CFD : FE;
 CFE : FE;
 CFF : FF;
 D00 : FF;
 D01 : FF;
 D02 : FF;
 D03 : FF;
 D04 : FF;
 D05 : FF;
 D06 : FF;
 D07 : FF;
 D08 : FF;
 D09 : FF;
 D0A : FF;
 D0B : FF;
 D0C : FF;
 D0D : FF;
 D0E : FF;
 D0F : FF;
 D10 : FF;
 D11 : FF;
 D12 : FF;
 D13 : FF;
 D14 : FF;
 D15 : FF;
 D16 : FF;
 D17 : FF;
 D18 : FF;
 D19 : FF;
 D1A : FF;
 D1B : FF;
 D1C : FF;
 D1D : FF;
 D1E : FF;
 D1F : FF;
 D20 : FF;
 D21 : FF;
 D22 : FF;
 D23 : FF;
 D24 : FF;
 D25 : FF;
 D26 : FF;
 D27 : FF;
 D28 : FF;
 D29 : FF;
 D2A : FF;
 D2B : FF;
 D2C : FF;
 D2D : FF;
 D2E : FF;
 D2F : FF;
 D30 : FF;
 D31 : FF;
 D32 : FF;
 D33 : FF;
 D34 : FF;
 D35 : FF;
 D36 : FF;
 D37 : FF;
 D38 : FF;
 D39 : FF;
 D3A : FF;
 D3B : FF;
 D3C : FF;
 D3D : FF;
 D3E : FF;
 D3F : FF;
 D40 : FF;
 D41 : FF;
 D42 : FF;
 D43 : FF;
 D44 : FF;
 D45 : FE;
 D46 : FE;
 D47 : FD;
 D48 : FE;
 D49 : FF;
 D4A : FE;
 D4B : FC;
 D4C : FC;
 D4D : FC;
 D4E : FC;
 D4F : FE;
 D50 : FE;
 D51 : FC;
 D52 : F9;
 D53 : FB;
 D54 : FB;
 D55 : FC;
 D56 : F9;
 D57 : FE;
 D58 : FF;
 D59 : FE;
 D5A : FE;
 D5B : FE;
 D5C : FF;
 D5D : FE;
 D5E : FE;
 D5F : FE;
 D60 : FF;
 D61 : FF;
 D62 : FF;
 D63 : FF;
 D64 : FF;
 D65 : FF;
 D66 : FF;
 D67 : FF;
 D68 : FF;
 D69 : FF;
 D6A : FF;
 D6B : FF;
 D6C : FF;
 D6D : FF;
 D6E : FF;
 D6F : FF;
 D70 : FF;
 D71 : FF;
 D72 : FF;
 D73 : FF;
 D74 : FF;
 D75 : FF;
 D76 : FF;
 D77 : FF;
 D78 : FF;
 D79 : FF;
 D7A : FF;
 D7B : FF;
 D7C : FF;
 D7D : FF;
 D7E : FF;
 D7F : FF;
 D80 : FF;
 D81 : FF;
 D82 : FF;
 D83 : FF;
 D84 : FF;
 D85 : FF;
 D86 : FF;
 D87 : FF;
 D88 : FF;
 D89 : FF;
 D8A : FF;
 D8B : FF;
 D8C : FF;
 D8D : FF;
 D8E : FF;
 D8F : FF;
 D90 : FF;
 D91 : FF;
 D92 : FF;
 D93 : FF;
 D94 : FF;
 D95 : FF;
 D96 : FF;
 D97 : FF;
 D98 : FF;
 D99 : FF;
 D9A : FF;
 D9B : FF;
 D9C : FF;
 D9D : FF;
 D9E : FF;
 D9F : FF;
 DA0 : FF;
 DA1 : FF;
 DA2 : FF;
 DA3 : FF;
 DA4 : FF;
 DA5 : FF;
 DA6 : FF;
 DA7 : FF;
 DA8 : FF;
 DA9 : FF;
 DAA : FF;
 DAB : FF;
 DAC : FF;
 DAD : FF;
 DAE : FF;
 DAF : FF;
 DB0 : FF;
 DB1 : FF;
 DB2 : FF;
 DB3 : FF;
 DB4 : FF;
 DB5 : FF;
 DB6 : FF;
 DB7 : FF;
 DB8 : FF;
 DB9 : FF;
 DBA : FF;
 DBB : FF;
 DBC : FF;
 DBD : FF;
 DBE : FF;
 DBF : FF;
 DC0 : FF;
 DC1 : FF;
 DC2 : FF;
 DC3 : FF;
 DC4 : FF;
 DC5 : FF;
 DC6 : FF;
 DC7 : FF;
 DC8 : FF;
 DC9 : FF;
 DCA : FF;
 DCB : FF;
 DCC : FF;
 DCD : FF;
 DCE : FF;
 DCF : FF;
 DD0 : FF;
 DD1 : FF;
 DD2 : FF;
 DD3 : FF;
 DD4 : FF;
 DD5 : FF;
 DD6 : FF;
 DD7 : FF;
 DD8 : FF;
 DD9 : FF;
 DDA : FF;
 DDB : FF;
 DDC : FF;
 DDD : FF;
 DDE : FF;
 DDF : FF;
 DE0 : FF;
 DE1 : FF;
 DE2 : FF;
 DE3 : FF;
 DE4 : FF;
 DE5 : FF;
 DE6 : FF;
 DE7 : FF;
 DE8 : FF;
 DE9 : FF;
 DEA : FF;
 DEB : FF;
 DEC : FF;
 DED : FF;
 DEE : FF;
 DEF : FF;
 DF0 : FF;
 DF1 : FF;
 DF2 : FF;
 DF3 : FF;
 DF4 : FF;
 DF5 : FF;
 DF6 : FF;
 DF7 : FF;
 DF8 : FF;
 DF9 : FF;
 DFA : FF;
 DFB : FF;
 DFC : FF;
 DFD : FF;
 DFE : FF;
 DFF : FF;
 E00 : FF;
 E01 : FF;
 E02 : FF;
 E03 : FF;
 E04 : FF;
 E05 : FF;
 E06 : FF;
 E07 : FF;
 E08 : FF;
 E09 : FF;
 E0A : FF;
 E0B : FF;
 E0C : FF;
 E0D : FF;
 E0E : FF;
 E0F : FF;
 E10 : FF;
 E11 : FF;
 E12 : FF;
 E13 : FF;
 E14 : FF;
 E15 : FF;
 E16 : FF;
 E17 : FF;
 E18 : FF;
 E19 : FF;
 E1A : FF;
 E1B : FF;
 E1C : FF;
 E1D : FF;
 E1E : FE;
 E1F : FE;
 E20 : FE;
 E21 : FF;
 E22 : FE;
 E23 : FE;
 E24 : FE;
 E25 : FE;
 E26 : FE;
 E27 : FC;
 E28 : FD;
 E29 : FA;
 E2A : FB;
 E2B : FD;
 E2C : FC;
 E2D : F6;
 E2E : FA;
 E2F : FE;
 E30 : FF;
 E31 : FD;
 E32 : FC;
 E33 : FD;
 E34 : FE;
 E35 : FF;
 E36 : FF;
 E37 : FF;
 E38 : FF;
 E39 : FE;
 E3A : FE;
 E3B : FE;
 E3C : FE;
 E3D : FE;
 E3E : FE;
 E3F : FF;
 E40 : FF;
 E41 : FF;
 E42 : FF;
 E43 : FF;
 E44 : FF;
 E45 : FF;
 E46 : FF;
 E47 : FF;
 E48 : FF;
 E49 : FF;
 E4A : FF;
 E4B : FF;
 E4C : FF;
 E4D : FF;
 E4E : FF;
 E4F : FF;
 E50 : FF;
 E51 : FF;
 E52 : FF;
 E53 : FF;
 E54 : FF;
 E55 : FF;
 E56 : FF;
 E57 : FF;
 E58 : FF;
 E59 : FF;
 E5A : FF;
 E5B : FF;
 E5C : FF;
 E5D : FF;
 E5E : FF;
 E5F : FF;
 E60 : FF;
 E61 : FF;
 E62 : FF;
 E63 : FF;
 E64 : FF;
 E65 : FF;
 E66 : FF;
 E67 : FF;
 E68 : FF;
 E69 : FF;
 E6A : FF;
 E6B : FF;
 E6C : FF;
 E6D : FF;
 E6E : FF;
 E6F : FF;
 E70 : FF;
 E71 : FF;
 E72 : FF;
 E73 : FF;
 E74 : FF;
 E75 : FF;
 E76 : FF;
 E77 : FF;
 E78 : FF;
 E79 : FF;
 E7A : FF;
 E7B : FF;
 E7C : FF;
 E7D : FF;
 E7E : FF;
 E7F : FF;
 E80 : FF;
 E81 : FF;
 E82 : FF;
 E83 : FF;
 E84 : FF;
 E85 : FE;
 E86 : FE;
 E87 : FC;
 E88 : FF;
 E89 : FF;
 E8A : FE;
 E8B : FC;
 E8C : FE;
 E8D : FE;
 E8E : FD;
 E8F : FA;
 E90 : FC;
 E91 : FD;
 E92 : FB;
 E93 : FB;
 E94 : FB;
 E95 : FC;
 E96 : FD;
 E97 : FE;
 E98 : FF;
 E99 : FE;
 E9A : FE;
 E9B : FE;
 E9C : FF;
 E9D : FE;
 E9E : FE;
 E9F : FF;
 EA0 : FF;
 EA1 : FF;
 EA2 : FF;
 EA3 : FF;
 EA4 : FF;
 EA5 : FF;
 EA6 : FF;
 EA7 : FF;
 EA8 : FF;
 EA9 : FF;
 EAA : FF;
 EAB : FF;
 EAC : FF;
 EAD : FF;
 EAE : FF;
 EAF : FF;
 EB0 : FF;
 EB1 : FF;
 EB2 : FF;
 EB3 : FF;
 EB4 : FF;
 EB5 : FF;
 EB6 : FF;
 EB7 : FF;
 EB8 : FF;
 EB9 : FF;
 EBA : FF;
 EBB : FF;
 EBC : FF;
 EBD : FF;
 EBE : FF;
 EBF : FF;
 EC0 : FF;
 EC1 : FF;
 EC2 : FF;
 EC3 : FF;
 EC4 : FF;
 EC5 : FF;
 EC6 : FF;
 EC7 : FF;
 EC8 : FF;
 EC9 : FF;
 ECA : FF;
 ECB : FF;
 ECC : FF;
 ECD : FF;
 ECE : FF;
 ECF : FF;
 ED0 : FF;
 ED1 : FF;
 ED2 : FF;
 ED3 : FF;
 ED4 : FF;
 ED5 : FF;
 ED6 : FF;
 ED7 : FF;
 ED8 : FF;
 ED9 : FF;
 EDA : FF;
 EDB : FF;
 EDC : FF;
 EDD : FF;
 EDE : FF;
 EDF : FF;
 EE0 : FF;
 EE1 : FF;
 EE2 : FF;
 EE3 : FF;
 EE4 : FF;
 EE5 : FF;
 EE6 : FF;
 EE7 : FF;
 EE8 : FF;
 EE9 : FF;
 EEA : FF;
 EEB : FF;
 EEC : FF;
 EED : FF;
 EEE : FF;
 EEF : FF;
 EF0 : FF;
 EF1 : FF;
 EF2 : FF;
 EF3 : FF;
 EF4 : FF;
 EF5 : FF;
 EF6 : FF;
 EF7 : FF;
 EF8 : FF;
 EF9 : FF;
 EFA : FF;
 EFB : FF;
 EFC : FF;
 EFD : FF;
 EFE : FF;
 EFF : FF;
 F00 : FF;
 F01 : FF;
 F02 : FF;
 F03 : FF;
 F04 : FF;
 F05 : FF;
 F06 : FF;
 F07 : FF;
 F08 : FF;
 F09 : FF;
 F0A : FF;
 F0B : FF;
 F0C : FF;
 F0D : FF;
 F0E : FF;
 F0F : FF;
 F10 : FF;
 F11 : FF;
 F12 : FF;
 F13 : FF;
 F14 : FF;
 F15 : FF;
 F16 : FF;
 F17 : FF;
 F18 : FF;
 F19 : FF;
 F1A : FF;
 F1B : FF;
 F1C : FF;
 F1D : FF;
 F1E : FF;
 F1F : FF;
 F20 : FF;
 F21 : FF;
 F22 : FF;
 F23 : FF;
 F24 : FF;
 F25 : FF;
 F26 : FF;
 F27 : FF;
 F28 : FF;
 F29 : FF;
 F2A : FF;
 F2B : FF;
 F2C : FF;
 F2D : FF;
 F2E : FF;
 F2F : FF;
 F30 : FF;
 F31 : FF;
 F32 : FF;
 F33 : FF;
 F34 : FF;
 F35 : FF;
 F36 : FF;
 F37 : FF;
 F38 : FF;
 F39 : FF;
 F3A : FF;
 F3B : FF;
 F3C : FF;
 F3D : FF;
 F3E : FF;
 F3F : FF;
 F40 : FF;
 F41 : FF;
 F42 : FF;
 F43 : FF;
 F44 : FF;
 F45 : FF;
 F46 : FF;
 F47 : FF;
 F48 : FF;
 F49 : FF;
 F4A : FF;
 F4B : FF;
 F4C : FF;
 F4D : FF;
 F4E : FF;
 F4F : FF;
 F50 : FF;
 F51 : FF;
 F52 : FF;
 F53 : FF;
 F54 : FF;
 F55 : FF;
 F56 : FF;
 F57 : FF;
 F58 : FF;
 F59 : FF;
 F5A : FF;
 F5B : FF;
 F5C : FF;
 F5D : FF;
 F5E : FE;
 F5F : FE;
 F60 : FE;
 F61 : FE;
 F62 : FE;
 F63 : FE;
 F64 : FE;
 F65 : FE;
 F66 : FE;
 F67 : FC;
 F68 : FE;
 F69 : FB;
 F6A : FD;
 F6B : FD;
 F6C : F8;
 F6D : EE;
 F6E : F1;
 F6F : FD;
 F70 : FE;
 F71 : FD;
 F72 : FD;
 F73 : FC;
 F74 : FD;
 F75 : FF;
 F76 : FF;
 F77 : FF;
 F78 : FF;
 F79 : FE;
 F7A : FE;
 F7B : FE;
 F7C : FE;
 F7D : FE;
 F7E : FE;
 F7F : FF;
 F80 : FF;
 F81 : FF;
 F82 : FF;
 F83 : FF;
 F84 : FF;
 F85 : FF;
 F86 : FF;
 F87 : FF;
 F88 : FF;
 F89 : FF;
 F8A : FF;
 F8B : FF;
 F8C : FF;
 F8D : FF;
 F8E : FF;
 F8F : FF;
 F90 : FF;
 F91 : FF;
 F92 : FF;
 F93 : FF;
 F94 : FF;
 F95 : FF;
 F96 : FF;
 F97 : FF;
 F98 : FF;
 F99 : FF;
 F9A : FF;
 F9B : FF;
 F9C : FF;
 F9D : FF;
 F9E : FF;
 F9F : FF;
 FA0 : FF;
 FA1 : FF;
 FA2 : FF;
 FA3 : FF;
 FA4 : FF;
 FA5 : FF;
 FA6 : FF;
 FA7 : FF;
 FA8 : FF;
 FA9 : FF;
 FAA : FF;
 FAB : FF;
 FAC : FF;
 FAD : FF;
 FAE : FF;
 FAF : FF;
 FB0 : FF;
 FB1 : FF;
 FB2 : FF;
 FB3 : FF;
 FB4 : FF;
 FB5 : FF;
 FB6 : FF;
 FB7 : FF;
 FB8 : FF;
 FB9 : FF;
 FBA : FF;
 FBB : FF;
 FBC : FF;
 FBD : FF;
 FBE : FF;
 FBF : FF;
 FC0 : FF;
 FC1 : FF;
 FC2 : FF;
 FC3 : FF;
 FC4 : FF;
 FC5 : FE;
 FC6 : FE;
 FC7 : FC;
 FC8 : FF;
 FC9 : FF;
 FCA : FD;
 FCB : FE;
 FCC : FE;
 FCD : FE;
 FCE : FB;
 FCF : EB;
 FD0 : F7;
 FD1 : FD;
 FD2 : FD;
 FD3 : FA;
 FD4 : FB;
 FD5 : FC;
 FD6 : FD;
 FD7 : FE;
 FD8 : FF;
 FD9 : FE;
 FDA : FE;
 FDB : FE;
 FDC : FF;
 FDD : FF;
 FDE : FE;
 FDF : FF;
 FE0 : FF;
 FE1 : FF;
 FE2 : FF;
 FE3 : FF;
 FE4 : FF;
 FE5 : FF;
 FE6 : FF;
 FE7 : FF;
 FE8 : FF;
 FE9 : FF;
 FEA : FF;
 FEB : FF;
 FEC : FF;
 FED : FF;
 FEE : FF;
 FEF : FF;
 FF0 : FF;
 FF1 : FF;
 FF2 : FF;
 FF3 : FF;
 FF4 : FF;
 FF5 : FF;
 FF6 : FF;
 FF7 : FF;
 FF8 : FF;
 FF9 : FF;
 FFA : FF;
 FFB : FF;
 FFC : FF;
 FFD : FF;
 FFE : FF;
 FFF : FF;
 1000 : FF;
 1001 : FF;
 1002 : FF;
 1003 : FF;
 1004 : FF;
 1005 : FF;
 1006 : FF;
 1007 : FF;
 1008 : FF;
 1009 : FF;
 100A : FF;
 100B : FF;
 100C : FF;
 100D : FF;
 100E : FF;
 100F : FF;
 1010 : FF;
 1011 : FF;
 1012 : FF;
 1013 : FF;
 1014 : FF;
 1015 : FF;
 1016 : FF;
 1017 : FF;
 1018 : FF;
 1019 : FF;
 101A : FF;
 101B : FF;
 101C : FF;
 101D : FF;
 101E : FF;
 101F : FF;
 1020 : FF;
 1021 : FF;
 1022 : FF;
 1023 : FF;
 1024 : FF;
 1025 : FF;
 1026 : FF;
 1027 : FF;
 1028 : FF;
 1029 : FF;
 102A : FF;
 102B : FF;
 102C : FF;
 102D : FF;
 102E : FF;
 102F : FF;
 1030 : FF;
 1031 : FF;
 1032 : FF;
 1033 : FF;
 1034 : FF;
 1035 : FF;
 1036 : FF;
 1037 : FF;
 1038 : FF;
 1039 : FF;
 103A : FF;
 103B : FF;
 103C : FF;
 103D : FF;
 103E : FF;
 103F : FF;
 1040 : FF;
 1041 : FF;
 1042 : FF;
 1043 : FF;
 1044 : FF;
 1045 : FF;
 1046 : FF;
 1047 : FF;
 1048 : FF;
 1049 : FF;
 104A : FF;
 104B : FF;
 104C : FF;
 104D : FF;
 104E : FF;
 104F : FF;
 1050 : FF;
 1051 : FF;
 1052 : FF;
 1053 : FF;
 1054 : FF;
 1055 : FF;
 1056 : FF;
 1057 : FF;
 1058 : FF;
 1059 : FF;
 105A : FF;
 105B : FF;
 105C : FF;
 105D : FF;
 105E : FF;
 105F : FF;
 1060 : FF;
 1061 : FF;
 1062 : FF;
 1063 : FF;
 1064 : FF;
 1065 : FF;
 1066 : FF;
 1067 : FF;
 1068 : FF;
 1069 : FF;
 106A : FF;
 106B : FF;
 106C : FF;
 106D : FF;
 106E : FF;
 106F : FF;
 1070 : FF;
 1071 : FF;
 1072 : FF;
 1073 : FF;
 1074 : FF;
 1075 : FF;
 1076 : FF;
 1077 : FF;
 1078 : FF;
 1079 : FF;
 107A : FF;
 107B : FF;
 107C : FF;
 107D : FF;
 107E : FF;
 107F : FF;
 1080 : FF;
 1081 : FF;
 1082 : FF;
 1083 : FF;
 1084 : FF;
 1085 : FF;
 1086 : FF;
 1087 : FF;
 1088 : FF;
 1089 : FF;
 108A : FF;
 108B : FF;
 108C : FF;
 108D : FF;
 108E : FF;
 108F : FF;
 1090 : FF;
 1091 : FF;
 1092 : FF;
 1093 : FF;
 1094 : FF;
 1095 : FF;
 1096 : FF;
 1097 : FF;
 1098 : FF;
 1099 : FF;
 109A : FF;
 109B : FF;
 109C : FF;
 109D : FF;
 109E : FE;
 109F : FE;
 10A0 : FE;
 10A1 : FE;
 10A2 : FF;
 10A3 : FE;
 10A4 : FE;
 10A5 : FE;
 10A6 : FF;
 10A7 : FD;
 10A8 : FE;
 10A9 : FC;
 10AA : FD;
 10AB : FC;
 10AC : F1;
 10AD : E0;
 10AE : E1;
 10AF : FB;
 10B0 : FB;
 10B1 : FD;
 10B2 : FD;
 10B3 : FD;
 10B4 : FD;
 10B5 : FE;
 10B6 : FF;
 10B7 : FF;
 10B8 : FF;
 10B9 : FE;
 10BA : FE;
 10BB : FE;
 10BC : FE;
 10BD : FE;
 10BE : FE;
 10BF : FF;
 10C0 : FF;
 10C1 : FF;
 10C2 : FF;
 10C3 : FF;
 10C4 : FF;
 10C5 : FF;
 10C6 : FF;
 10C7 : FF;
 10C8 : FF;
 10C9 : FF;
 10CA : FF;
 10CB : FF;
 10CC : FF;
 10CD : FF;
 10CE : FF;
 10CF : FF;
 10D0 : FF;
 10D1 : FF;
 10D2 : FF;
 10D3 : FF;
 10D4 : FF;
 10D5 : FF;
 10D6 : FF;
 10D7 : FF;
 10D8 : FF;
 10D9 : FF;
 10DA : FF;
 10DB : FF;
 10DC : FF;
 10DD : FF;
 10DE : FF;
 10DF : FF;
 10E0 : FF;
 10E1 : FF;
 10E2 : FF;
 10E3 : FF;
 10E4 : FF;
 10E5 : FF;
 10E6 : FF;
 10E7 : FF;
 10E8 : FF;
 10E9 : FF;
 10EA : FF;
 10EB : FF;
 10EC : FF;
 10ED : FF;
 10EE : FF;
 10EF : FF;
 10F0 : FF;
 10F1 : FF;
 10F2 : FF;
 10F3 : FF;
 10F4 : FF;
 10F5 : FF;
 10F6 : FF;
 10F7 : FF;
 10F8 : FF;
 10F9 : FF;
 10FA : FF;
 10FB : FF;
 10FC : FF;
 10FD : FF;
 10FE : FF;
 10FF : FF;
 1100 : FF;
 1101 : FF;
 1102 : FF;
 1103 : FF;
 1104 : FF;
 1105 : FE;
 1106 : FF;
 1107 : FE;
 1108 : FF;
 1109 : FF;
 110A : FE;
 110B : FE;
 110C : FE;
 110D : FD;
 110E : F3;
 110F : D9;
 1110 : EC;
 1111 : FB;
 1112 : FD;
 1113 : FB;
 1114 : FB;
 1115 : FD;
 1116 : FE;
 1117 : FF;
 1118 : FE;
 1119 : FE;
 111A : FE;
 111B : FE;
 111C : FE;
 111D : FE;
 111E : FE;
 111F : FF;
 1120 : FF;
 1121 : FF;
 1122 : FF;
 1123 : FF;
 1124 : FF;
 1125 : FF;
 1126 : FF;
 1127 : FF;
 1128 : FF;
 1129 : FF;
 112A : FF;
 112B : FF;
 112C : FF;
 112D : FF;
 112E : FF;
 112F : FF;
 1130 : FF;
 1131 : FF;
 1132 : FF;
 1133 : FF;
 1134 : FF;
 1135 : FF;
 1136 : FF;
 1137 : FF;
 1138 : FF;
 1139 : FF;
 113A : FF;
 113B : FF;
 113C : FF;
 113D : FF;
 113E : FF;
 113F : FF;
 1140 : FF;
 1141 : FF;
 1142 : FF;
 1143 : FF;
 1144 : FF;
 1145 : FF;
 1146 : FF;
 1147 : FF;
 1148 : FF;
 1149 : FF;
 114A : FF;
 114B : FF;
 114C : FF;
 114D : FF;
 114E : FF;
 114F : FF;
 1150 : FF;
 1151 : FF;
 1152 : FF;
 1153 : FF;
 1154 : FF;
 1155 : FF;
 1156 : FF;
 1157 : FF;
 1158 : FF;
 1159 : FF;
 115A : FF;
 115B : FF;
 115C : FF;
 115D : FF;
 115E : FF;
 115F : FF;
 1160 : FF;
 1161 : FF;
 1162 : FF;
 1163 : FF;
 1164 : FF;
 1165 : FF;
 1166 : FF;
 1167 : FF;
 1168 : FF;
 1169 : FF;
 116A : FF;
 116B : FF;
 116C : FF;
 116D : FF;
 116E : FF;
 116F : FF;
 1170 : FF;
 1171 : FF;
 1172 : FF;
 1173 : FF;
 1174 : FF;
 1175 : FF;
 1176 : FF;
 1177 : FF;
 1178 : FF;
 1179 : FF;
 117A : FF;
 117B : FF;
 117C : FF;
 117D : FF;
 117E : FF;
 117F : FF;
 1180 : FF;
 1181 : FF;
 1182 : FF;
 1183 : FF;
 1184 : FF;
 1185 : FF;
 1186 : FF;
 1187 : FF;
 1188 : FF;
 1189 : FF;
 118A : FF;
 118B : FF;
 118C : FF;
 118D : FF;
 118E : FF;
 118F : FF;
 1190 : FF;
 1191 : FF;
 1192 : FF;
 1193 : FF;
 1194 : FF;
 1195 : FF;
 1196 : FF;
 1197 : FF;
 1198 : FF;
 1199 : FF;
 119A : FF;
 119B : FF;
 119C : FF;
 119D : FF;
 119E : FF;
 119F : FF;
 11A0 : FF;
 11A1 : FF;
 11A2 : FF;
 11A3 : FF;
 11A4 : FF;
 11A5 : FF;
 11A6 : FF;
 11A7 : FF;
 11A8 : FF;
 11A9 : FF;
 11AA : FF;
 11AB : FF;
 11AC : FF;
 11AD : FF;
 11AE : FF;
 11AF : FF;
 11B0 : FF;
 11B1 : FF;
 11B2 : FF;
 11B3 : FF;
 11B4 : FF;
 11B5 : FF;
 11B6 : FF;
 11B7 : FF;
 11B8 : FF;
 11B9 : FF;
 11BA : FF;
 11BB : FF;
 11BC : FF;
 11BD : FF;
 11BE : FF;
 11BF : FF;
 11C0 : FF;
 11C1 : FF;
 11C2 : FF;
 11C3 : FF;
 11C4 : FF;
 11C5 : FF;
 11C6 : FF;
 11C7 : FF;
 11C8 : FF;
 11C9 : FF;
 11CA : FF;
 11CB : FF;
 11CC : FF;
 11CD : FF;
 11CE : FF;
 11CF : FF;
 11D0 : FF;
 11D1 : FF;
 11D2 : FF;
 11D3 : FF;
 11D4 : FF;
 11D5 : FF;
 11D6 : FF;
 11D7 : FF;
 11D8 : FF;
 11D9 : FF;
 11DA : FF;
 11DB : FF;
 11DC : FF;
 11DD : FF;
 11DE : FE;
 11DF : FD;
 11E0 : FD;
 11E1 : FE;
 11E2 : FF;
 11E3 : FF;
 11E4 : FE;
 11E5 : FF;
 11E6 : FF;
 11E7 : FD;
 11E8 : FE;
 11E9 : FD;
 11EA : FD;
 11EB : FB;
 11EC : E9;
 11ED : D3;
 11EE : D0;
 11EF : F7;
 11F0 : F8;
 11F1 : FC;
 11F2 : FE;
 11F3 : FD;
 11F4 : FD;
 11F5 : FD;
 11F6 : FF;
 11F7 : FF;
 11F8 : FF;
 11F9 : FE;
 11FA : FE;
 11FB : FE;
 11FC : FE;
 11FD : FE;
 11FE : FE;
 11FF : FF;
 1200 : FF;
 1201 : FF;
 1202 : FF;
 1203 : FF;
 1204 : FF;
 1205 : FF;
 1206 : FF;
 1207 : FF;
 1208 : FF;
 1209 : FF;
 120A : FF;
 120B : FF;
 120C : FF;
 120D : FF;
 120E : FF;
 120F : FF;
 1210 : FF;
 1211 : FF;
 1212 : FF;
 1213 : FF;
 1214 : FF;
 1215 : FF;
 1216 : FF;
 1217 : FF;
 1218 : FF;
 1219 : FF;
 121A : FF;
 121B : FF;
 121C : FF;
 121D : FF;
 121E : FF;
 121F : FF;
 1220 : FF;
 1221 : FF;
 1222 : FF;
 1223 : FF;
 1224 : FF;
 1225 : FF;
 1226 : FF;
 1227 : FF;
 1228 : FF;
 1229 : FF;
 122A : FF;
 122B : FF;
 122C : FF;
 122D : FF;
 122E : FF;
 122F : FF;
 1230 : FF;
 1231 : FF;
 1232 : FF;
 1233 : FF;
 1234 : FF;
 1235 : FF;
 1236 : FF;
 1237 : FF;
 1238 : FF;
 1239 : FF;
 123A : FF;
 123B : FF;
 123C : FF;
 123D : FF;
 123E : FF;
 123F : FF;
 1240 : FF;
 1241 : FF;
 1242 : FF;
 1243 : FF;
 1244 : FF;
 1245 : FF;
 1246 : FF;
 1247 : FF;
 1248 : FF;
 1249 : FE;
 124A : FC;
 124B : FE;
 124C : FD;
 124D : F9;
 124E : E6;
 124F : CA;
 1250 : E0;
 1251 : F6;
 1252 : FB;
 1253 : FD;
 1254 : FD;
 1255 : FE;
 1256 : FD;
 1257 : FF;
 1258 : FE;
 1259 : FE;
 125A : FE;
 125B : FE;
 125C : FE;
 125D : FF;
 125E : FF;
 125F : FF;
 1260 : FF;
 1261 : FF;
 1262 : FF;
 1263 : FF;
 1264 : FF;
 1265 : FF;
 1266 : FF;
 1267 : FF;
 1268 : FF;
 1269 : FF;
 126A : FF;
 126B : FF;
 126C : FF;
 126D : FF;
 126E : FF;
 126F : FF;
 1270 : FF;
 1271 : FF;
 1272 : FF;
 1273 : FF;
 1274 : FF;
 1275 : FF;
 1276 : FF;
 1277 : FF;
 1278 : FF;
 1279 : FF;
 127A : FF;
 127B : FF;
 127C : FF;
 127D : FF;
 127E : FF;
 127F : FF;
 1280 : FF;
 1281 : FF;
 1282 : FF;
 1283 : FF;
 1284 : FF;
 1285 : FF;
 1286 : FF;
 1287 : FF;
 1288 : FF;
 1289 : FF;
 128A : FF;
 128B : FF;
 128C : FF;
 128D : FF;
 128E : FF;
 128F : FF;
 1290 : FF;
 1291 : FF;
 1292 : FF;
 1293 : FF;
 1294 : FF;
 1295 : FF;
 1296 : FF;
 1297 : FF;
 1298 : FF;
 1299 : FF;
 129A : FF;
 129B : FF;
 129C : FF;
 129D : FF;
 129E : FF;
 129F : FF;
 12A0 : FF;
 12A1 : FF;
 12A2 : FF;
 12A3 : FF;
 12A4 : FF;
 12A5 : FF;
 12A6 : FF;
 12A7 : FF;
 12A8 : FF;
 12A9 : FF;
 12AA : FF;
 12AB : FF;
 12AC : FF;
 12AD : FF;
 12AE : FF;
 12AF : FF;
 12B0 : FF;
 12B1 : FF;
 12B2 : FF;
 12B3 : FF;
 12B4 : FF;
 12B5 : FF;
 12B6 : FF;
 12B7 : FF;
 12B8 : FF;
 12B9 : FF;
 12BA : FF;
 12BB : FF;
 12BC : FF;
 12BD : FF;
 12BE : FF;
 12BF : FF;
 12C0 : FF;
 12C1 : FF;
 12C2 : FF;
 12C3 : FF;
 12C4 : FF;
 12C5 : FF;
 12C6 : FF;
 12C7 : FF;
 12C8 : FF;
 12C9 : FF;
 12CA : FF;
 12CB : FF;
 12CC : FF;
 12CD : FF;
 12CE : FF;
 12CF : FF;
 12D0 : FF;
 12D1 : FF;
 12D2 : FF;
 12D3 : FF;
 12D4 : FF;
 12D5 : FF;
 12D6 : FF;
 12D7 : FF;
 12D8 : FF;
 12D9 : FF;
 12DA : FF;
 12DB : FF;
 12DC : FF;
 12DD : FF;
 12DE : FF;
 12DF : FF;
 12E0 : FF;
 12E1 : FF;
 12E2 : FF;
 12E3 : FF;
 12E4 : FF;
 12E5 : FF;
 12E6 : FF;
 12E7 : FF;
 12E8 : FF;
 12E9 : FF;
 12EA : FF;
 12EB : FF;
 12EC : FF;
 12ED : FF;
 12EE : FF;
 12EF : FF;
 12F0 : FF;
 12F1 : FF;
 12F2 : FF;
 12F3 : FF;
 12F4 : FF;
 12F5 : FF;
 12F6 : FF;
 12F7 : FF;
 12F8 : FF;
 12F9 : FF;
 12FA : FF;
 12FB : FF;
 12FC : FF;
 12FD : FF;
 12FE : FF;
 12FF : FF;
 1300 : FF;
 1301 : FF;
 1302 : FF;
 1303 : FF;
 1304 : FF;
 1305 : FF;
 1306 : FF;
 1307 : FF;
 1308 : FF;
 1309 : FF;
 130A : FF;
 130B : FF;
 130C : FF;
 130D : FF;
 130E : FF;
 130F : FF;
 1310 : FF;
 1311 : FF;
 1312 : FF;
 1313 : FF;
 1314 : FF;
 1315 : FF;
 1316 : FF;
 1317 : FF;
 1318 : FF;
 1319 : FF;
 131A : FF;
 131B : FE;
 131C : FE;
 131D : FE;
 131E : FE;
 131F : FD;
 1320 : FE;
 1321 : FF;
 1322 : FE;
 1323 : FE;
 1324 : FE;
 1325 : FE;
 1326 : FE;
 1327 : FE;
 1328 : FE;
 1329 : FD;
 132A : FC;
 132B : FA;
 132C : E4;
 132D : CB;
 132E : C7;
 132F : F4;
 1330 : F7;
 1331 : FD;
 1332 : FE;
 1333 : FE;
 1334 : FD;
 1335 : FD;
 1336 : FE;
 1337 : FF;
 1338 : FF;
 1339 : FE;
 133A : FE;
 133B : FE;
 133C : FE;
 133D : FE;
 133E : FE;
 133F : FF;
 1340 : FF;
 1341 : FF;
 1342 : FF;
 1343 : FF;
 1344 : FE;
 1345 : FE;
 1346 : FE;
 1347 : FE;
 1348 : FE;
 1349 : FE;
 134A : FE;
 134B : FE;
 134C : FE;
 134D : FE;
 134E : FE;
 134F : FF;
 1350 : FF;
 1351 : FF;
 1352 : FF;
 1353 : FF;
 1354 : FF;
 1355 : FF;
 1356 : FF;
 1357 : FF;
 1358 : FF;
 1359 : FF;
 135A : FF;
 135B : FF;
 135C : FF;
 135D : FF;
 135E : FF;
 135F : FF;
 1360 : FF;
 1361 : FF;
 1362 : FF;
 1363 : FF;
 1364 : FF;
 1365 : FF;
 1366 : FF;
 1367 : FF;
 1368 : FF;
 1369 : FF;
 136A : FF;
 136B : FF;
 136C : FF;
 136D : FF;
 136E : FF;
 136F : FF;
 1370 : FF;
 1371 : FF;
 1372 : FE;
 1373 : FE;
 1374 : FE;
 1375 : FE;
 1376 : FE;
 1377 : FE;
 1378 : FF;
 1379 : FE;
 137A : FE;
 137B : FE;
 137C : FF;
 137D : FF;
 137E : FF;
 137F : FF;
 1380 : FF;
 1381 : FF;
 1382 : FF;
 1383 : FE;
 1384 : FE;
 1385 : FE;
 1386 : FF;
 1387 : FF;
 1388 : FF;
 1389 : FC;
 138A : FA;
 138B : FE;
 138C : FD;
 138D : F4;
 138E : DC;
 138F : C2;
 1390 : D7;
 1391 : F0;
 1392 : FB;
 1393 : FD;
 1394 : FE;
 1395 : FE;
 1396 : FA;
 1397 : FE;
 1398 : FE;
 1399 : FE;
 139A : FE;
 139B : FE;
 139C : FE;
 139D : FF;
 139E : FE;
 139F : FE;
 13A0 : FE;
 13A1 : FE;
 13A2 : FE;
 13A3 : FE;
 13A4 : FF;
 13A5 : FF;
 13A6 : FF;
 13A7 : FF;
 13A8 : FF;
 13A9 : FF;
 13AA : FF;
 13AB : FF;
 13AC : FF;
 13AD : FE;
 13AE : FE;
 13AF : FF;
 13B0 : FF;
 13B1 : FF;
 13B2 : FF;
 13B3 : FF;
 13B4 : FF;
 13B5 : FF;
 13B6 : FF;
 13B7 : FF;
 13B8 : FF;
 13B9 : FF;
 13BA : FF;
 13BB : FF;
 13BC : FF;
 13BD : FF;
 13BE : FF;
 13BF : FF;
 13C0 : FF;
 13C1 : FF;
 13C2 : FF;
 13C3 : FF;
 13C4 : FF;
 13C5 : FF;
 13C6 : FF;
 13C7 : FF;
 13C8 : FF;
 13C9 : FF;
 13CA : FF;
 13CB : FF;
 13CC : FF;
 13CD : FF;
 13CE : FF;
 13CF : FF;
 13D0 : FF;
 13D1 : FF;
 13D2 : FF;
 13D3 : FF;
 13D4 : FF;
 13D5 : FF;
 13D6 : FF;
 13D7 : FF;
 13D8 : FF;
 13D9 : FF;
 13DA : FF;
 13DB : FF;
 13DC : FF;
 13DD : FF;
 13DE : FF;
 13DF : FF;
 13E0 : FF;
 13E1 : FF;
 13E2 : FF;
 13E3 : FF;
 13E4 : FF;
 13E5 : FF;
 13E6 : FF;
 13E7 : FF;
 13E8 : FF;
 13E9 : FF;
 13EA : FF;
 13EB : FF;
 13EC : FF;
 13ED : FF;
 13EE : FF;
 13EF : FF;
 13F0 : FF;
 13F1 : FF;
 13F2 : FF;
 13F3 : FF;
 13F4 : FF;
 13F5 : FF;
 13F6 : FF;
 13F7 : FF;
 13F8 : FF;
 13F9 : FF;
 13FA : FF;
 13FB : FF;
 13FC : FF;
 13FD : FF;
 13FE : FF;
 13FF : FF;
 1400 : FF;
 1401 : FF;
 1402 : FF;
 1403 : FF;
 1404 : FF;
 1405 : FF;
 1406 : FF;
 1407 : FF;
 1408 : FF;
 1409 : FF;
 140A : FF;
 140B : FF;
 140C : FF;
 140D : FF;
 140E : FF;
 140F : FF;
 1410 : FF;
 1411 : FF;
 1412 : FF;
 1413 : FF;
 1414 : FF;
 1415 : FF;
 1416 : FF;
 1417 : FF;
 1418 : FF;
 1419 : FF;
 141A : FF;
 141B : FF;
 141C : FF;
 141D : FF;
 141E : FF;
 141F : FF;
 1420 : FF;
 1421 : FF;
 1422 : FF;
 1423 : FF;
 1424 : FF;
 1425 : FF;
 1426 : FF;
 1427 : FF;
 1428 : FF;
 1429 : FF;
 142A : FF;
 142B : FF;
 142C : FF;
 142D : FF;
 142E : FF;
 142F : FF;
 1430 : FF;
 1431 : FF;
 1432 : FF;
 1433 : FF;
 1434 : FF;
 1435 : FF;
 1436 : FF;
 1437 : FF;
 1438 : FF;
 1439 : FF;
 143A : FF;
 143B : FF;
 143C : FF;
 143D : FF;
 143E : FF;
 143F : FF;
 1440 : FF;
 1441 : FF;
 1442 : FF;
 1443 : FF;
 1444 : FF;
 1445 : FF;
 1446 : FF;
 1447 : FF;
 1448 : FF;
 1449 : FF;
 144A : FF;
 144B : FF;
 144C : FF;
 144D : FF;
 144E : FF;
 144F : FF;
 1450 : FE;
 1451 : FF;
 1452 : FF;
 1453 : FF;
 1454 : FE;
 1455 : FF;
 1456 : FE;
 1457 : FF;
 1458 : FF;
 1459 : FE;
 145A : FE;
 145B : FD;
 145C : FC;
 145D : FB;
 145E : FC;
 145F : FE;
 1460 : FE;
 1461 : FE;
 1462 : FD;
 1463 : FC;
 1464 : FC;
 1465 : FC;
 1466 : FD;
 1467 : FE;
 1468 : FB;
 1469 : FB;
 146A : FB;
 146B : EE;
 146C : D5;
 146D : CA;
 146E : D1;
 146F : DA;
 1470 : FA;
 1471 : FD;
 1472 : FD;
 1473 : FE;
 1474 : FC;
 1475 : F9;
 1476 : FE;
 1477 : FF;
 1478 : FF;
 1479 : FE;
 147A : FD;
 147B : FC;
 147C : FD;
 147D : FD;
 147E : FF;
 147F : FE;
 1480 : FE;
 1481 : FE;
 1482 : FF;
 1483 : FE;
 1484 : FD;
 1485 : FE;
 1486 : FC;
 1487 : FD;
 1488 : FC;
 1489 : FD;
 148A : FD;
 148B : FD;
 148C : FE;
 148D : FD;
 148E : FE;
 148F : FE;
 1490 : FF;
 1491 : FF;
 1492 : FF;
 1493 : FF;
 1494 : FF;
 1495 : FF;
 1496 : FF;
 1497 : FF;
 1498 : FF;
 1499 : FF;
 149A : FF;
 149B : FF;
 149C : FF;
 149D : FF;
 149E : FF;
 149F : FF;
 14A0 : FF;
 14A1 : FF;
 14A2 : FF;
 14A3 : FF;
 14A4 : FF;
 14A5 : FF;
 14A6 : FF;
 14A7 : FF;
 14A8 : FF;
 14A9 : FF;
 14AA : FF;
 14AB : FF;
 14AC : FF;
 14AD : FF;
 14AE : FF;
 14AF : FF;
 14B0 : FF;
 14B1 : FE;
 14B2 : FE;
 14B3 : FE;
 14B4 : FE;
 14B5 : FD;
 14B6 : FD;
 14B7 : FE;
 14B8 : FE;
 14B9 : FE;
 14BA : FE;
 14BB : FE;
 14BC : FE;
 14BD : FF;
 14BE : FF;
 14BF : FE;
 14C0 : FE;
 14C1 : FE;
 14C2 : FE;
 14C3 : FD;
 14C4 : FD;
 14C5 : FD;
 14C6 : FE;
 14C7 : FE;
 14C8 : FE;
 14C9 : FB;
 14CA : FB;
 14CB : FE;
 14CC : FC;
 14CD : E9;
 14CE : CD;
 14CF : D2;
 14D0 : CA;
 14D1 : E2;
 14D2 : FA;
 14D3 : FD;
 14D4 : FD;
 14D5 : FD;
 14D6 : FC;
 14D7 : FD;
 14D8 : FD;
 14D9 : FE;
 14DA : FE;
 14DB : FE;
 14DC : FE;
 14DD : FE;
 14DE : FF;
 14DF : FD;
 14E0 : FB;
 14E1 : FD;
 14E2 : FD;
 14E3 : FE;
 14E4 : FF;
 14E5 : FE;
 14E6 : FE;
 14E7 : FE;
 14E8 : FE;
 14E9 : FF;
 14EA : FF;
 14EB : FF;
 14EC : FE;
 14ED : FE;
 14EE : FE;
 14EF : FE;
 14F0 : FF;
 14F1 : FF;
 14F2 : FF;
 14F3 : FF;
 14F4 : FF;
 14F5 : FF;
 14F6 : FF;
 14F7 : FF;
 14F8 : FF;
 14F9 : FF;
 14FA : FF;
 14FB : FF;
 14FC : FF;
 14FD : FF;
 14FE : FF;
 14FF : FF;
 1500 : FF;
 1501 : FF;
 1502 : FF;
 1503 : FF;
 1504 : FF;
 1505 : FF;
 1506 : FF;
 1507 : FF;
 1508 : FF;
 1509 : FF;
 150A : FF;
 150B : FF;
 150C : FF;
 150D : FF;
 150E : FF;
 150F : FF;
 1510 : FF;
 1511 : FF;
 1512 : FF;
 1513 : FF;
 1514 : FF;
 1515 : FF;
 1516 : FF;
 1517 : FF;
 1518 : FF;
 1519 : FF;
 151A : FF;
 151B : FF;
 151C : FF;
 151D : FF;
 151E : FF;
 151F : FF;
 1520 : FF;
 1521 : FF;
 1522 : FF;
 1523 : FF;
 1524 : FF;
 1525 : FF;
 1526 : FF;
 1527 : FF;
 1528 : FF;
 1529 : FF;
 152A : FF;
 152B : FF;
 152C : FF;
 152D : FF;
 152E : FF;
 152F : FF;
 1530 : FF;
 1531 : FF;
 1532 : FF;
 1533 : FF;
 1534 : FF;
 1535 : FF;
 1536 : FF;
 1537 : FF;
 1538 : FF;
 1539 : FF;
 153A : FF;
 153B : FF;
 153C : FF;
 153D : FF;
 153E : FF;
 153F : FF;
 1540 : FF;
 1541 : FF;
 1542 : FF;
 1543 : FF;
 1544 : FF;
 1545 : FF;
 1546 : FF;
 1547 : FF;
 1548 : FF;
 1549 : FF;
 154A : FF;
 154B : FF;
 154C : FF;
 154D : FF;
 154E : FF;
 154F : FF;
 1550 : FF;
 1551 : FF;
 1552 : FF;
 1553 : FF;
 1554 : FF;
 1555 : FF;
 1556 : FF;
 1557 : FF;
 1558 : FF;
 1559 : FF;
 155A : FF;
 155B : FF;
 155C : FF;
 155D : FF;
 155E : FF;
 155F : FF;
 1560 : FF;
 1561 : FF;
 1562 : FF;
 1563 : FF;
 1564 : FF;
 1565 : FF;
 1566 : FF;
 1567 : FF;
 1568 : FF;
 1569 : FF;
 156A : FF;
 156B : FF;
 156C : FF;
 156D : FF;
 156E : FF;
 156F : FF;
 1570 : FF;
 1571 : FF;
 1572 : FF;
 1573 : FF;
 1574 : FF;
 1575 : FF;
 1576 : FF;
 1577 : FF;
 1578 : FF;
 1579 : FF;
 157A : FF;
 157B : FF;
 157C : FF;
 157D : FF;
 157E : FF;
 157F : FF;
 1580 : FF;
 1581 : FF;
 1582 : FF;
 1583 : FF;
 1584 : FF;
 1585 : FF;
 1586 : FF;
 1587 : FF;
 1588 : FF;
 1589 : FF;
 158A : FF;
 158B : FF;
 158C : FF;
 158D : FF;
 158E : FF;
 158F : FF;
 1590 : FF;
 1591 : FF;
 1592 : FF;
 1593 : FE;
 1594 : FE;
 1595 : FF;
 1596 : FF;
 1597 : FF;
 1598 : FF;
 1599 : FE;
 159A : FE;
 159B : FD;
 159C : FD;
 159D : FC;
 159E : FC;
 159F : FD;
 15A0 : FE;
 15A1 : FE;
 15A2 : FD;
 15A3 : FC;
 15A4 : FC;
 15A5 : FC;
 15A6 : FD;
 15A7 : FE;
 15A8 : FD;
 15A9 : FC;
 15AA : F6;
 15AB : E6;
 15AC : D1;
 15AD : CA;
 15AE : CF;
 15AF : D2;
 15B0 : EF;
 15B1 : FB;
 15B2 : FE;
 15B3 : FD;
 15B4 : FC;
 15B5 : FC;
 15B6 : FE;
 15B7 : FE;
 15B8 : FF;
 15B9 : FE;
 15BA : FD;
 15BB : FD;
 15BC : FE;
 15BD : FE;
 15BE : FE;
 15BF : FF;
 15C0 : FE;
 15C1 : FF;
 15C2 : FF;
 15C3 : FE;
 15C4 : FD;
 15C5 : FD;
 15C6 : FD;
 15C7 : FD;
 15C8 : FE;
 15C9 : FD;
 15CA : FE;
 15CB : FE;
 15CC : FE;
 15CD : FE;
 15CE : FF;
 15CF : FF;
 15D0 : FF;
 15D1 : FF;
 15D2 : FF;
 15D3 : FF;
 15D4 : FF;
 15D5 : FF;
 15D6 : FF;
 15D7 : FF;
 15D8 : FF;
 15D9 : FF;
 15DA : FF;
 15DB : FF;
 15DC : FF;
 15DD : FF;
 15DE : FF;
 15DF : FF;
 15E0 : FF;
 15E1 : FF;
 15E2 : FF;
 15E3 : FF;
 15E4 : FF;
 15E5 : FF;
 15E6 : FF;
 15E7 : FF;
 15E8 : FF;
 15E9 : FF;
 15EA : FF;
 15EB : FF;
 15EC : FF;
 15ED : FF;
 15EE : FF;
 15EF : FF;
 15F0 : FF;
 15F1 : FF;
 15F2 : FF;
 15F3 : FE;
 15F4 : FE;
 15F5 : FE;
 15F6 : FE;
 15F7 : FE;
 15F8 : FE;
 15F9 : FE;
 15FA : FE;
 15FB : FE;
 15FC : FE;
 15FD : FE;
 15FE : FF;
 15FF : FE;
 1600 : FE;
 1601 : FE;
 1602 : FE;
 1603 : FD;
 1604 : FD;
 1605 : FD;
 1606 : FE;
 1607 : FE;
 1608 : FE;
 1609 : FB;
 160A : FD;
 160B : FD;
 160C : F6;
 160D : E1;
 160E : CB;
 160F : D0;
 1610 : CB;
 1611 : DA;
 1612 : F3;
 1613 : FC;
 1614 : FE;
 1615 : FD;
 1616 : FC;
 1617 : FD;
 1618 : FE;
 1619 : FE;
 161A : FE;
 161B : FE;
 161C : FE;
 161D : FF;
 161E : FF;
 161F : FD;
 1620 : FD;
 1621 : FD;
 1622 : FE;
 1623 : FE;
 1624 : FF;
 1625 : FE;
 1626 : FE;
 1627 : FE;
 1628 : FE;
 1629 : FE;
 162A : FF;
 162B : FF;
 162C : FF;
 162D : FE;
 162E : FE;
 162F : FF;
 1630 : FF;
 1631 : FF;
 1632 : FF;
 1633 : FF;
 1634 : FF;
 1635 : FF;
 1636 : FF;
 1637 : FF;
 1638 : FF;
 1639 : FF;
 163A : FF;
 163B : FF;
 163C : FF;
 163D : FF;
 163E : FF;
 163F : FF;
 1640 : FF;
 1641 : FF;
 1642 : FF;
 1643 : FF;
 1644 : FF;
 1645 : FF;
 1646 : FF;
 1647 : FF;
 1648 : FF;
 1649 : FF;
 164A : FF;
 164B : FF;
 164C : FF;
 164D : FF;
 164E : FF;
 164F : FF;
 1650 : FF;
 1651 : FF;
 1652 : FF;
 1653 : FF;
 1654 : FF;
 1655 : FF;
 1656 : FF;
 1657 : FF;
 1658 : FF;
 1659 : FF;
 165A : FF;
 165B : FF;
 165C : FF;
 165D : FF;
 165E : FF;
 165F : FF;
 1660 : FF;
 1661 : FF;
 1662 : FF;
 1663 : FF;
 1664 : FF;
 1665 : FF;
 1666 : FF;
 1667 : FF;
 1668 : FF;
 1669 : FF;
 166A : FF;
 166B : FF;
 166C : FF;
 166D : FF;
 166E : FF;
 166F : FF;
 1670 : FF;
 1671 : FF;
 1672 : FF;
 1673 : FF;
 1674 : FF;
 1675 : FF;
 1676 : FF;
 1677 : FF;
 1678 : FF;
 1679 : FF;
 167A : FF;
 167B : FF;
 167C : FF;
 167D : FF;
 167E : FF;
 167F : FF;
 1680 : FF;
 1681 : FF;
 1682 : FF;
 1683 : FF;
 1684 : FF;
 1685 : FF;
 1686 : FF;
 1687 : FF;
 1688 : FF;
 1689 : FF;
 168A : FF;
 168B : FF;
 168C : FF;
 168D : FF;
 168E : FF;
 168F : FF;
 1690 : FF;
 1691 : FF;
 1692 : FF;
 1693 : FF;
 1694 : FF;
 1695 : FF;
 1696 : FF;
 1697 : FF;
 1698 : FF;
 1699 : FF;
 169A : FF;
 169B : FF;
 169C : FF;
 169D : FF;
 169E : FF;
 169F : FF;
 16A0 : FF;
 16A1 : FF;
 16A2 : FF;
 16A3 : FF;
 16A4 : FF;
 16A5 : FF;
 16A6 : FF;
 16A7 : FF;
 16A8 : FF;
 16A9 : FF;
 16AA : FF;
 16AB : FF;
 16AC : FF;
 16AD : FF;
 16AE : FF;
 16AF : FF;
 16B0 : FF;
 16B1 : FF;
 16B2 : FF;
 16B3 : FF;
 16B4 : FF;
 16B5 : FF;
 16B6 : FF;
 16B7 : FF;
 16B8 : FF;
 16B9 : FF;
 16BA : FF;
 16BB : FF;
 16BC : FF;
 16BD : FF;
 16BE : FF;
 16BF : FF;
 16C0 : FF;
 16C1 : FF;
 16C2 : FF;
 16C3 : FF;
 16C4 : FF;
 16C5 : FF;
 16C6 : FF;
 16C7 : FF;
 16C8 : FF;
 16C9 : FF;
 16CA : FF;
 16CB : FF;
 16CC : FF;
 16CD : FF;
 16CE : FF;
 16CF : FE;
 16D0 : FE;
 16D1 : FE;
 16D2 : FE;
 16D3 : FE;
 16D4 : FE;
 16D5 : FF;
 16D6 : FF;
 16D7 : FF;
 16D8 : FF;
 16D9 : FF;
 16DA : FF;
 16DB : FF;
 16DC : FF;
 16DD : FF;
 16DE : FE;
 16DF : FB;
 16E0 : FB;
 16E1 : FC;
 16E2 : FD;
 16E3 : FE;
 16E4 : FD;
 16E5 : FC;
 16E6 : FB;
 16E7 : FB;
 16E8 : FD;
 16E9 : FB;
 16EA : ED;
 16EB : D9;
 16EC : CB;
 16ED : C9;
 16EE : CD;
 16EF : CB;
 16F0 : DF;
 16F1 : F8;
 16F2 : FC;
 16F3 : FC;
 16F4 : FE;
 16F5 : FE;
 16F6 : FD;
 16F7 : FE;
 16F8 : FE;
 16F9 : FF;
 16FA : FE;
 16FB : FE;
 16FC : FF;
 16FD : FE;
 16FE : FE;
 16FF : FE;
 1700 : FE;
 1701 : FE;
 1702 : FE;
 1703 : FE;
 1704 : FE;
 1705 : FE;
 1706 : FE;
 1707 : FE;
 1708 : FE;
 1709 : FE;
 170A : FE;
 170B : FE;
 170C : FE;
 170D : FE;
 170E : FE;
 170F : FF;
 1710 : FF;
 1711 : FF;
 1712 : FF;
 1713 : FF;
 1714 : FF;
 1715 : FF;
 1716 : FF;
 1717 : FF;
 1718 : FF;
 1719 : FF;
 171A : FF;
 171B : FF;
 171C : FF;
 171D : FF;
 171E : FF;
 171F : FF;
 1720 : FF;
 1721 : FF;
 1722 : FF;
 1723 : FF;
 1724 : FF;
 1725 : FF;
 1726 : FF;
 1727 : FF;
 1728 : FF;
 1729 : FF;
 172A : FF;
 172B : FF;
 172C : FF;
 172D : FF;
 172E : FF;
 172F : FE;
 1730 : FE;
 1731 : FE;
 1732 : FE;
 1733 : FE;
 1734 : FE;
 1735 : FE;
 1736 : FE;
 1737 : FE;
 1738 : FF;
 1739 : FE;
 173A : FE;
 173B : FE;
 173C : FE;
 173D : FE;
 173E : FE;
 173F : FD;
 1740 : FD;
 1741 : FD;
 1742 : FD;
 1743 : FB;
 1744 : FB;
 1745 : FD;
 1746 : FE;
 1747 : FE;
 1748 : FD;
 1749 : FE;
 174A : FD;
 174B : FA;
 174C : EA;
 174D : D5;
 174E : C9;
 174F : CD;
 1750 : CC;
 1751 : D0;
 1752 : E4;
 1753 : FC;
 1754 : FE;
 1755 : FC;
 1756 : FD;
 1757 : FE;
 1758 : FD;
 1759 : FC;
 175A : FB;
 175B : FB;
 175C : FB;
 175D : FC;
 175E : FE;
 175F : FE;
 1760 : FE;
 1761 : FF;
 1762 : FF;
 1763 : FF;
 1764 : FF;
 1765 : FF;
 1766 : FF;
 1767 : FF;
 1768 : FF;
 1769 : FF;
 176A : FF;
 176B : FF;
 176C : FF;
 176D : FF;
 176E : FF;
 176F : FF;
 1770 : FF;
 1771 : FF;
 1772 : FF;
 1773 : FF;
 1774 : FF;
 1775 : FF;
 1776 : FF;
 1777 : FF;
 1778 : FF;
 1779 : FF;
 177A : FF;
 177B : FF;
 177C : FF;
 177D : FF;
 177E : FF;
 177F : FF;
 1780 : FF;
 1781 : FF;
 1782 : FF;
 1783 : FF;
 1784 : FF;
 1785 : FF;
 1786 : FF;
 1787 : FF;
 1788 : FF;
 1789 : FF;
 178A : FF;
 178B : FF;
 178C : FF;
 178D : FF;
 178E : FF;
 178F : FF;
 1790 : FF;
 1791 : FF;
 1792 : FF;
 1793 : FF;
 1794 : FF;
 1795 : FF;
 1796 : FF;
 1797 : FF;
 1798 : FF;
 1799 : FF;
 179A : FF;
 179B : FF;
 179C : FF;
 179D : FF;
 179E : FF;
 179F : FF;
 17A0 : FF;
 17A1 : FF;
 17A2 : FF;
 17A3 : FF;
 17A4 : FF;
 17A5 : FF;
 17A6 : FF;
 17A7 : FF;
 17A8 : FF;
 17A9 : FF;
 17AA : FF;
 17AB : FF;
 17AC : FF;
 17AD : FF;
 17AE : FF;
 17AF : FF;
 17B0 : FF;
 17B1 : FF;
 17B2 : FF;
 17B3 : FF;
 17B4 : FF;
 17B5 : FF;
 17B6 : FF;
 17B7 : FF;
 17B8 : FF;
 17B9 : FF;
 17BA : FF;
 17BB : FF;
 17BC : FF;
 17BD : FF;
 17BE : FF;
 17BF : FF;
 17C0 : FF;
 17C1 : FF;
 17C2 : FF;
 17C3 : FF;
 17C4 : FF;
 17C5 : FF;
 17C6 : FF;
 17C7 : FF;
 17C8 : FF;
 17C9 : FF;
 17CA : FF;
 17CB : FF;
 17CC : FF;
 17CD : FF;
 17CE : FF;
 17CF : FF;
 17D0 : FF;
 17D1 : FF;
 17D2 : FF;
 17D3 : FF;
 17D4 : FF;
 17D5 : FF;
 17D6 : FF;
 17D7 : FF;
 17D8 : FF;
 17D9 : FF;
 17DA : FF;
 17DB : FF;
 17DC : FF;
 17DD : FF;
 17DE : FF;
 17DF : FF;
 17E0 : FF;
 17E1 : FF;
 17E2 : FF;
 17E3 : FF;
 17E4 : FF;
 17E5 : FF;
 17E6 : FF;
 17E7 : FF;
 17E8 : FF;
 17E9 : FF;
 17EA : FF;
 17EB : FF;
 17EC : FF;
 17ED : FF;
 17EE : FF;
 17EF : FF;
 17F0 : FF;
 17F1 : FF;
 17F2 : FF;
 17F3 : FF;
 17F4 : FF;
 17F5 : FF;
 17F6 : FF;
 17F7 : FF;
 17F8 : FF;
 17F9 : FF;
 17FA : FF;
 17FB : FF;
 17FC : FF;
 17FD : FF;
 17FE : FF;
 17FF : FF;
 1800 : FF;
 1801 : FF;
 1802 : FF;
 1803 : FF;
 1804 : FF;
 1805 : FF;
 1806 : FF;
 1807 : FF;
 1808 : FF;
 1809 : FF;
 180A : FF;
 180B : FF;
 180C : FF;
 180D : FF;
 180E : FF;
 180F : FE;
 1810 : FE;
 1811 : FE;
 1812 : FE;
 1813 : FF;
 1814 : FF;
 1815 : FF;
 1816 : FE;
 1817 : FE;
 1818 : FE;
 1819 : FF;
 181A : FF;
 181B : FF;
 181C : FE;
 181D : FE;
 181E : FF;
 181F : FB;
 1820 : FB;
 1821 : FC;
 1822 : FD;
 1823 : FD;
 1824 : FD;
 1825 : FA;
 1826 : FA;
 1827 : F9;
 1828 : FC;
 1829 : F9;
 182A : E5;
 182B : CD;
 182C : C7;
 182D : CA;
 182E : CE;
 182F : C7;
 1830 : D2;
 1831 : F0;
 1832 : FB;
 1833 : FB;
 1834 : FE;
 1835 : FE;
 1836 : FC;
 1837 : FE;
 1838 : FE;
 1839 : FE;
 183A : FF;
 183B : FF;
 183C : FE;
 183D : FE;
 183E : FE;
 183F : FE;
 1840 : FD;
 1841 : FD;
 1842 : FE;
 1843 : FE;
 1844 : FF;
 1845 : FE;
 1846 : FE;
 1847 : FE;
 1848 : FE;
 1849 : FE;
 184A : FE;
 184B : FE;
 184C : FE;
 184D : FE;
 184E : FE;
 184F : FF;
 1850 : FF;
 1851 : FF;
 1852 : FF;
 1853 : FF;
 1854 : FF;
 1855 : FF;
 1856 : FF;
 1857 : FF;
 1858 : FF;
 1859 : FF;
 185A : FF;
 185B : FF;
 185C : FF;
 185D : FF;
 185E : FF;
 185F : FF;
 1860 : FF;
 1861 : FF;
 1862 : FF;
 1863 : FF;
 1864 : FF;
 1865 : FF;
 1866 : FF;
 1867 : FF;
 1868 : FF;
 1869 : FF;
 186A : FF;
 186B : FF;
 186C : FF;
 186D : FF;
 186E : FF;
 186F : FE;
 1870 : FE;
 1871 : FE;
 1872 : FE;
 1873 : FE;
 1874 : FE;
 1875 : FE;
 1876 : FE;
 1877 : FE;
 1878 : FF;
 1879 : FF;
 187A : FF;
 187B : FE;
 187C : FE;
 187D : FE;
 187E : FE;
 187F : FD;
 1880 : FD;
 1881 : FC;
 1882 : FB;
 1883 : FB;
 1884 : FC;
 1885 : FD;
 1886 : FE;
 1887 : FD;
 1888 : FC;
 1889 : FE;
 188A : FD;
 188B : F5;
 188C : DE;
 188D : CD;
 188E : CA;
 188F : CC;
 1890 : CD;
 1891 : C8;
 1892 : D7;
 1893 : F7;
 1894 : FD;
 1895 : FB;
 1896 : FE;
 1897 : FD;
 1898 : FC;
 1899 : FB;
 189A : FB;
 189B : FB;
 189C : FB;
 189D : FC;
 189E : FD;
 189F : FF;
 18A0 : FE;
 18A1 : FE;
 18A2 : FE;
 18A3 : FF;
 18A4 : FF;
 18A5 : FF;
 18A6 : FF;
 18A7 : FF;
 18A8 : FF;
 18A9 : FF;
 18AA : FF;
 18AB : FF;
 18AC : FF;
 18AD : FF;
 18AE : FF;
 18AF : FF;
 18B0 : FF;
 18B1 : FF;
 18B2 : FF;
 18B3 : FF;
 18B4 : FF;
 18B5 : FF;
 18B6 : FF;
 18B7 : FF;
 18B8 : FF;
 18B9 : FF;
 18BA : FF;
 18BB : FF;
 18BC : FF;
 18BD : FF;
 18BE : FF;
 18BF : FF;
 18C0 : FF;
 18C1 : FF;
 18C2 : FF;
 18C3 : FF;
 18C4 : FF;
 18C5 : FF;
 18C6 : FF;
 18C7 : FF;
 18C8 : FF;
 18C9 : FF;
 18CA : FF;
 18CB : FF;
 18CC : FF;
 18CD : FF;
 18CE : FF;
 18CF : FF;
 18D0 : FF;
 18D1 : FF;
 18D2 : FF;
 18D3 : FF;
 18D4 : FF;
 18D5 : FF;
 18D6 : FF;
 18D7 : FF;
 18D8 : FF;
 18D9 : FF;
 18DA : FF;
 18DB : FF;
 18DC : FF;
 18DD : FF;
 18DE : FF;
 18DF : FF;
 18E0 : FF;
 18E1 : FF;
 18E2 : FF;
 18E3 : FF;
 18E4 : FF;
 18E5 : FF;
 18E6 : FF;
 18E7 : FF;
 18E8 : FF;
 18E9 : FF;
 18EA : FF;
 18EB : FF;
 18EC : FF;
 18ED : FF;
 18EE : FF;
 18EF : FF;
 18F0 : FF;
 18F1 : FF;
 18F2 : FF;
 18F3 : FF;
 18F4 : FF;
 18F5 : FF;
 18F6 : FF;
 18F7 : FF;
 18F8 : FF;
 18F9 : FF;
 18FA : FF;
 18FB : FF;
 18FC : FF;
 18FD : FF;
 18FE : FF;
 18FF : FF;
 1900 : FF;
 1901 : FF;
 1902 : FF;
 1903 : FF;
 1904 : FF;
 1905 : FF;
 1906 : FF;
 1907 : FF;
 1908 : FF;
 1909 : FF;
 190A : FF;
 190B : FF;
 190C : FF;
 190D : FF;
 190E : FF;
 190F : FF;
 1910 : FF;
 1911 : FF;
 1912 : FF;
 1913 : FF;
 1914 : FF;
 1915 : FF;
 1916 : FF;
 1917 : FF;
 1918 : FF;
 1919 : FF;
 191A : FF;
 191B : FF;
 191C : FF;
 191D : FF;
 191E : FF;
 191F : FF;
 1920 : FF;
 1921 : FF;
 1922 : FF;
 1923 : FF;
 1924 : FF;
 1925 : FF;
 1926 : FF;
 1927 : FF;
 1928 : FF;
 1929 : FF;
 192A : FF;
 192B : FF;
 192C : FF;
 192D : FF;
 192E : FF;
 192F : FF;
 1930 : FF;
 1931 : FF;
 1932 : FF;
 1933 : FF;
 1934 : FF;
 1935 : FF;
 1936 : FF;
 1937 : FF;
 1938 : FF;
 1939 : FF;
 193A : FF;
 193B : FF;
 193C : FF;
 193D : FF;
 193E : FF;
 193F : FF;
 1940 : FF;
 1941 : FF;
 1942 : FF;
 1943 : FF;
 1944 : FF;
 1945 : FF;
 1946 : FF;
 1947 : FF;
 1948 : FF;
 1949 : FF;
 194A : FF;
 194B : FF;
 194C : FF;
 194D : FF;
 194E : FF;
 194F : FF;
 1950 : FF;
 1951 : FE;
 1952 : FE;
 1953 : FE;
 1954 : FE;
 1955 : FE;
 1956 : FE;
 1957 : FE;
 1958 : FE;
 1959 : FE;
 195A : FE;
 195B : FF;
 195C : FE;
 195D : FF;
 195E : FF;
 195F : FE;
 1960 : FE;
 1961 : FE;
 1962 : FE;
 1963 : FE;
 1964 : FD;
 1965 : FB;
 1966 : FB;
 1967 : FA;
 1968 : FC;
 1969 : F3;
 196A : DC;
 196B : C8;
 196C : C8;
 196D : CB;
 196E : CC;
 196F : C9;
 1970 : CC;
 1971 : E6;
 1972 : F9;
 1973 : FA;
 1974 : FE;
 1975 : FF;
 1976 : FB;
 1977 : FE;
 1978 : FE;
 1979 : FF;
 197A : FE;
 197B : FE;
 197C : FF;
 197D : FE;
 197E : FE;
 197F : FE;
 1980 : FE;
 1981 : FE;
 1982 : FE;
 1983 : FE;
 1984 : FF;
 1985 : FF;
 1986 : FE;
 1987 : FF;
 1988 : FF;
 1989 : FF;
 198A : FF;
 198B : FF;
 198C : FF;
 198D : FF;
 198E : FF;
 198F : FF;
 1990 : FF;
 1991 : FF;
 1992 : FF;
 1993 : FF;
 1994 : FF;
 1995 : FF;
 1996 : FF;
 1997 : FF;
 1998 : FF;
 1999 : FF;
 199A : FF;
 199B : FF;
 199C : FF;
 199D : FF;
 199E : FF;
 199F : FF;
 19A0 : FF;
 19A1 : FF;
 19A2 : FF;
 19A3 : FF;
 19A4 : FF;
 19A5 : FF;
 19A6 : FF;
 19A7 : FF;
 19A8 : FF;
 19A9 : FF;
 19AA : FF;
 19AB : FF;
 19AC : FF;
 19AD : FF;
 19AE : FF;
 19AF : FF;
 19B0 : FF;
 19B1 : FE;
 19B2 : FF;
 19B3 : FF;
 19B4 : FF;
 19B5 : FF;
 19B6 : FF;
 19B7 : FF;
 19B8 : FF;
 19B9 : FF;
 19BA : FE;
 19BB : FF;
 19BC : FE;
 19BD : FE;
 19BE : FE;
 19BF : FE;
 19C0 : FE;
 19C1 : FC;
 19C2 : FC;
 19C3 : FC;
 19C4 : FD;
 19C5 : FE;
 19C6 : FE;
 19C7 : F9;
 19C8 : FB;
 19C9 : FC;
 19CA : FC;
 19CB : ED;
 19CC : D6;
 19CD : C9;
 19CE : CC;
 19CF : CC;
 19D0 : CF;
 19D1 : C6;
 19D2 : CE;
 19D3 : EF;
 19D4 : FB;
 19D5 : FC;
 19D6 : FE;
 19D7 : FD;
 19D8 : FC;
 19D9 : FD;
 19DA : FE;
 19DB : FE;
 19DC : FF;
 19DD : FE;
 19DE : FE;
 19DF : FE;
 19E0 : FE;
 19E1 : FE;
 19E2 : FE;
 19E3 : FF;
 19E4 : FF;
 19E5 : FF;
 19E6 : FF;
 19E7 : FF;
 19E8 : FF;
 19E9 : FE;
 19EA : FE;
 19EB : FE;
 19EC : FE;
 19ED : FE;
 19EE : FE;
 19EF : FF;
 19F0 : FF;
 19F1 : FF;
 19F2 : FF;
 19F3 : FF;
 19F4 : FF;
 19F5 : FF;
 19F6 : FF;
 19F7 : FF;
 19F8 : FF;
 19F9 : FF;
 19FA : FF;
 19FB : FF;
 19FC : FF;
 19FD : FF;
 19FE : FF;
 19FF : FF;
 1A00 : FF;
 1A01 : FF;
 1A02 : FF;
 1A03 : FF;
 1A04 : FF;
 1A05 : FF;
 1A06 : FF;
 1A07 : FF;
 1A08 : FF;
 1A09 : FF;
 1A0A : FF;
 1A0B : FF;
 1A0C : FF;
 1A0D : FF;
 1A0E : FF;
 1A0F : FF;
 1A10 : FF;
 1A11 : FF;
 1A12 : FF;
 1A13 : FF;
 1A14 : FF;
 1A15 : FF;
 1A16 : FF;
 1A17 : FF;
 1A18 : FF;
 1A19 : FF;
 1A1A : FF;
 1A1B : FF;
 1A1C : FF;
 1A1D : FF;
 1A1E : FF;
 1A1F : FF;
 1A20 : FF;
 1A21 : FF;
 1A22 : FF;
 1A23 : FF;
 1A24 : FF;
 1A25 : FF;
 1A26 : FF;
 1A27 : FF;
 1A28 : FF;
 1A29 : FF;
 1A2A : FF;
 1A2B : FF;
 1A2C : FF;
 1A2D : FF;
 1A2E : FF;
 1A2F : FF;
 1A30 : FF;
 1A31 : FF;
 1A32 : FF;
 1A33 : FF;
 1A34 : FF;
 1A35 : FF;
 1A36 : FF;
 1A37 : FF;
 1A38 : FF;
 1A39 : FF;
 1A3A : FF;
 1A3B : FF;
 1A3C : FF;
 1A3D : FF;
 1A3E : FF;
 1A3F : FF;
 1A40 : FF;
 1A41 : FF;
 1A42 : FF;
 1A43 : FF;
 1A44 : FF;
 1A45 : FF;
 1A46 : FF;
 1A47 : FF;
 1A48 : FF;
 1A49 : FF;
 1A4A : FF;
 1A4B : FF;
 1A4C : FF;
 1A4D : FF;
 1A4E : FF;
 1A4F : FF;
 1A50 : FF;
 1A51 : FF;
 1A52 : FF;
 1A53 : FF;
 1A54 : FF;
 1A55 : FF;
 1A56 : FF;
 1A57 : FF;
 1A58 : FF;
 1A59 : FF;
 1A5A : FF;
 1A5B : FF;
 1A5C : FF;
 1A5D : FF;
 1A5E : FF;
 1A5F : FF;
 1A60 : FF;
 1A61 : FF;
 1A62 : FF;
 1A63 : FF;
 1A64 : FF;
 1A65 : FF;
 1A66 : FF;
 1A67 : FF;
 1A68 : FF;
 1A69 : FF;
 1A6A : FF;
 1A6B : FF;
 1A6C : FF;
 1A6D : FF;
 1A6E : FF;
 1A6F : FF;
 1A70 : FF;
 1A71 : FF;
 1A72 : FF;
 1A73 : FF;
 1A74 : FF;
 1A75 : FF;
 1A76 : FF;
 1A77 : FF;
 1A78 : FF;
 1A79 : FF;
 1A7A : FF;
 1A7B : FF;
 1A7C : FF;
 1A7D : FF;
 1A7E : FF;
 1A7F : FF;
 1A80 : FF;
 1A81 : FF;
 1A82 : FF;
 1A83 : FF;
 1A84 : FF;
 1A85 : FF;
 1A86 : FF;
 1A87 : FF;
 1A88 : FF;
 1A89 : FF;
 1A8A : FF;
 1A8B : FF;
 1A8C : FF;
 1A8D : FF;
 1A8E : FF;
 1A8F : FE;
 1A90 : FE;
 1A91 : FE;
 1A92 : FE;
 1A93 : FE;
 1A94 : FE;
 1A95 : FE;
 1A96 : FE;
 1A97 : FE;
 1A98 : FE;
 1A99 : FE;
 1A9A : FE;
 1A9B : FE;
 1A9C : FE;
 1A9D : FE;
 1A9E : FF;
 1A9F : FF;
 1AA0 : FE;
 1AA1 : FD;
 1AA2 : FD;
 1AA3 : FD;
 1AA4 : FE;
 1AA5 : FC;
 1AA6 : FB;
 1AA7 : FC;
 1AA8 : F8;
 1AA9 : E9;
 1AAA : D4;
 1AAB : C8;
 1AAC : CA;
 1AAD : CB;
 1AAE : CA;
 1AAF : CD;
 1AB0 : CA;
 1AB1 : DA;
 1AB2 : F0;
 1AB3 : F9;
 1AB4 : FE;
 1AB5 : FF;
 1AB6 : FD;
 1AB7 : FE;
 1AB8 : FE;
 1AB9 : FF;
 1ABA : FE;
 1ABB : FF;
 1ABC : FF;
 1ABD : FE;
 1ABE : FE;
 1ABF : FD;
 1AC0 : FD;
 1AC1 : FE;
 1AC2 : FE;
 1AC3 : FE;
 1AC4 : FE;
 1AC5 : FF;
 1AC6 : FE;
 1AC7 : FE;
 1AC8 : FE;
 1AC9 : FE;
 1ACA : FE;
 1ACB : FE;
 1ACC : FE;
 1ACD : FF;
 1ACE : FF;
 1ACF : FF;
 1AD0 : FF;
 1AD1 : FF;
 1AD2 : FF;
 1AD3 : FF;
 1AD4 : FF;
 1AD5 : FF;
 1AD6 : FF;
 1AD7 : FF;
 1AD8 : FF;
 1AD9 : FF;
 1ADA : FF;
 1ADB : FF;
 1ADC : FF;
 1ADD : FF;
 1ADE : FF;
 1ADF : FF;
 1AE0 : FF;
 1AE1 : FF;
 1AE2 : FF;
 1AE3 : FF;
 1AE4 : FF;
 1AE5 : FF;
 1AE6 : FF;
 1AE7 : FF;
 1AE8 : FF;
 1AE9 : FF;
 1AEA : FF;
 1AEB : FF;
 1AEC : FF;
 1AED : FF;
 1AEE : FF;
 1AEF : FE;
 1AF0 : FE;
 1AF1 : FE;
 1AF2 : FE;
 1AF3 : FE;
 1AF4 : FE;
 1AF5 : FE;
 1AF6 : FE;
 1AF7 : FF;
 1AF8 : FF;
 1AF9 : FE;
 1AFA : FE;
 1AFB : FE;
 1AFC : FE;
 1AFD : FD;
 1AFE : FD;
 1AFF : FD;
 1B00 : FE;
 1B01 : FE;
 1B02 : FE;
 1B03 : FE;
 1B04 : FE;
 1B05 : FE;
 1B06 : FE;
 1B07 : F8;
 1B08 : FE;
 1B09 : FC;
 1B0A : F6;
 1B0B : E4;
 1B0C : D0;
 1B0D : CA;
 1B0E : CD;
 1B0F : CB;
 1B10 : CE;
 1B11 : C8;
 1B12 : CA;
 1B13 : E0;
 1B14 : F5;
 1B15 : FC;
 1B16 : FE;
 1B17 : FD;
 1B18 : FD;
 1B19 : FE;
 1B1A : FF;
 1B1B : FE;
 1B1C : FD;
 1B1D : FD;
 1B1E : FE;
 1B1F : FE;
 1B20 : FE;
 1B21 : FE;
 1B22 : FE;
 1B23 : FE;
 1B24 : FE;
 1B25 : FF;
 1B26 : FF;
 1B27 : FF;
 1B28 : FF;
 1B29 : FE;
 1B2A : FE;
 1B2B : FE;
 1B2C : FE;
 1B2D : FE;
 1B2E : FE;
 1B2F : FF;
 1B30 : FF;
 1B31 : FF;
 1B32 : FF;
 1B33 : FF;
 1B34 : FF;
 1B35 : FF;
 1B36 : FF;
 1B37 : FF;
 1B38 : FF;
 1B39 : FF;
 1B3A : FF;
 1B3B : FF;
 1B3C : FF;
 1B3D : FF;
 1B3E : FF;
 1B3F : FF;
 1B40 : FF;
 1B41 : FF;
 1B42 : FF;
 1B43 : FF;
 1B44 : FF;
 1B45 : FF;
 1B46 : FF;
 1B47 : FF;
 1B48 : FF;
 1B49 : FF;
 1B4A : FF;
 1B4B : FF;
 1B4C : FF;
 1B4D : FF;
 1B4E : FF;
 1B4F : FF;
 1B50 : FF;
 1B51 : FF;
 1B52 : FF;
 1B53 : FF;
 1B54 : FF;
 1B55 : FF;
 1B56 : FF;
 1B57 : FF;
 1B58 : FF;
 1B59 : FF;
 1B5A : FF;
 1B5B : FF;
 1B5C : FF;
 1B5D : FF;
 1B5E : FF;
 1B5F : FF;
 1B60 : FF;
 1B61 : FF;
 1B62 : FF;
 1B63 : FF;
 1B64 : FF;
 1B65 : FF;
 1B66 : FF;
 1B67 : FF;
 1B68 : FF;
 1B69 : FF;
 1B6A : FF;
 1B6B : FF;
 1B6C : FF;
 1B6D : FF;
 1B6E : FF;
 1B6F : FF;
[...]
 125FE : FF;
 125FF : FF;
 12600 : FF;
 12601 : FF;
 12602 : FF;
 12603 : FF;
 12604 : FF;
 12605 : FF;
 12606 : FF;
 12607 : FF;
 12608 : FF;
 12609 : FF;
 1260A : FF;
 1260B : FF;
 1260C : FF;
 1260D : FF;
 1260E : FF;
 1260F : FF;
 12610 : FF;
 12611 : FF;
 12612 : FF;
 12613 : FF;
 12614 : FF;
 12615 : FF;
 12616 : FF;
 12617 : FF;
 12618 : FF;
 12619 : FF;
 1261A : FF;
 1261B : FF;
 1261C : FF;
 1261D : FF;
 1261E : FF;
 1261F : FF;
 12620 : FF;
 12621 : FF;
 12622 : FF;
 12623 : FF;
 12624 : FF;
 12625 : FF;
 12626 : FF;
 12627 : FF;
 12628 : FF;
 12629 : FF;
 1262A : FF;
 1262B : FF;
 1262C : FF;
 1262D : FF;
 1262E : FF;
 1262F : FF;
 12630 : FF;
 12631 : FF;
 12632 : FF;
 12633 : FF;
 12634 : FF;
 12635 : FF;
 12636 : FF;
 12637 : FF;
 12638 : FF;
 12639 : FF;
 1263A : FF;
 1263B : FF;
 1263C : FF;
 1263D : FF;
 1263E : FF;
 1263F : FF;
 12640 : FF;
 12641 : FF;
 12642 : FF;
 12643 : FF;
 12644 : FF;
 12645 : FF;
 12646 : FF;
 12647 : FF;
 12648 : FF;
 12649 : FF;
 1264A : FF;
 1264B : FE;
 1264C : FE;
 1264D : FE;
 1264E : FF;
 1264F : FF;
 12650 : FF;
 12651 : FF;
 12652 : FF;
 12653 : FF;
 12654 : FF;
 12655 : FF;
 12656 : FF;
 12657 : FF;
 12658 : FF;
 12659 : FF;
 1265A : FF;
 1265B : FF;
 1265C : FF;
 1265D : FF;
 1265E : FF;
 1265F : FE;
 12660 : FE;
 12661 : FE;
 12662 : FE;
 12663 : FE;
 12664 : FE;
 12665 : FE;
 12666 : FE;
 12667 : FE;
 12668 : FE;
 12669 : FE;
 1266A : FE;
 1266B : FE;
 1266C : FE;
 1266D : FE;
 1266E : FE;
 1266F : FF;
 12670 : FE;
 12671 : FE;
 12672 : FE;
 12673 : FE;
 12674 : FF;
 12675 : FF;
 12676 : FF;
 12677 : FF;
 12678 : FF;
 12679 : FF;
 1267A : FF;
 1267B : FF;
 1267C : FF;
 1267D : FF;
 1267E : FF;
 1267F : FF;
 12680 : FF;
 12681 : FF;
 12682 : FF;
 12683 : FF;
 12684 : FF;
 12685 : FF;
 12686 : FF;
 12687 : FF;
 12688 : FF;
 12689 : FF;
 1268A : FF;
 1268B : FF;
 1268C : FF;
 1268D : FF;
 1268E : FF;
 1268F : FF;
 12690 : FF;
 12691 : FF;
 12692 : FF;
 12693 : FF;
 12694 : FF;
 12695 : FF;
 12696 : FF;
 12697 : FF;
 12698 : FF;
 12699 : FF;
 1269A : FF;
 1269B : FF;
 1269C : FF;
 1269D : FF;
 1269E : FF;
 1269F : FF;
 126A0 : FF;
 126A1 : FF;
 126A2 : FF;
 126A3 : FF;
 126A4 : FF;
 126A5 : FF;
 126A6 : FF;
 126A7 : FF;
 126A8 : FF;
 126A9 : FF;
 126AA : FF;
 126AB : FF;
 126AC : FF;
 126AD : FF;
 126AE : FF;
 126AF : FF;
 126B0 : FF;
 126B1 : FF;
 126B2 : FF;
 126B3 : FF;
 126B4 : FF;
 126B5 : FF;
 126B6 : FF;
 126B7 : FF;
 126B8 : FF;
 126B9 : FF;
 126BA : FF;
 126BB : FF;
 126BC : FF;
 126BD : FF;
 126BE : FF;
 126BF : FF;
 126C0 : FF;
 126C1 : FF;
 126C2 : FF;
 126C3 : FF;
 126C4 : FF;
 126C5 : FF;
 126C6 : FF;
 126C7 : FF;
 126C8 : FF;
 126C9 : FF;
 126CA : FF;
 126CB : FF;
 126CC : FF;
 126CD : FF;
 126CE : FF;
 126CF : FF;
 126D0 : FF;
 126D1 : FF;
 126D2 : FF;
 126D3 : FF;
 126D4 : FF;
 126D5 : FF;
 126D6 : FF;
 126D7 : FF;
 126D8 : FF;
 126D9 : FF;
 126DA : FF;
 126DB : FF;
 126DC : FF;
 126DD : FF;
 126DE : FF;
 126DF : FF;
 126E0 : FF;
 126E1 : FF;
 126E2 : FF;
 126E3 : FF;
 126E4 : FF;
 126E5 : FF;
 126E6 : FF;
 126E7 : FF;
 126E8 : FF;
 126E9 : FF;
 126EA : FF;
 126EB : FF;
 126EC : FF;
 126ED : FF;
 126EE : FF;
 126EF : FF;
 126F0 : FF;
 126F1 : FF;
 126F2 : FF;
 126F3 : FF;
 126F4 : FF;
 126F5 : FF;
 126F6 : FF;
 126F7 : FF;
 126F8 : FF;
 126F9 : FF;
 126FA : FF;
 126FB : FF;
 126FC : FF;
 126FD : FF;
 126FE : FF;
 126FF : FF;
 12700 : FF;
 12701 : FF;
 12702 : FF;
 12703 : FF;
 12704 : FF;
 12705 : FF;
 12706 : FF;
 12707 : FF;
 12708 : FF;
 12709 : FF;
 1270A : FF;
 1270B : FF;
 1270C : FF;
 1270D : FF;
 1270E : FF;
 1270F : FF;
 12710 : FF;
 12711 : FF;
 12712 : FF;
 12713 : FF;
 12714 : FF;
 12715 : FF;
 12716 : FF;
 12717 : FF;
 12718 : FF;
 12719 : FF;
 1271A : FF;
 1271B : FF;
 1271C : FF;
 1271D : FF;
 1271E : FF;
 1271F : FF;
 12720 : FF;
 12721 : FF;
 12722 : FF;
 12723 : FF;
 12724 : FF;
 12725 : FF;
 12726 : FF;
 12727 : FF;
 12728 : FF;
 12729 : FF;
 1272A : FF;
 1272B : FF;
 1272C : FF;
 1272D : FF;
 1272E : FF;
 1272F : FF;
 12730 : FF;
 12731 : FF;
 12732 : FF;
 12733 : FF;
 12734 : FF;
 12735 : FF;
 12736 : FF;
 12737 : FF;
 12738 : FF;
 12739 : FF;
 1273A : FF;
 1273B : FF;
 1273C : FF;
 1273D : FF;
 1273E : FF;
 1273F : FF;
 12740 : FF;
 12741 : FF;
 12742 : FF;
 12743 : FF;
 12744 : FF;
 12745 : FF;
 12746 : FF;
 12747 : FF;
 12748 : FF;
 12749 : FF;
 1274A : FF;
 1274B : FF;
 1274C : FF;
 1274D : FF;
 1274E : FF;
 1274F : FF;
 12750 : FF;
 12751 : FF;
 12752 : FF;
 12753 : FF;
 12754 : FF;
 12755 : FF;
 12756 : FF;
 12757 : FF;
 12758 : FF;
 12759 : FF;
 1275A : FF;
 1275B : FF;
 1275C : FF;
 1275D : FF;
 1275E : FF;
 1275F : FF;
 12760 : FF;
 12761 : FF;
 12762 : FF;
 12763 : FF;
 12764 : FF;
 12765 : FF;
 12766 : FF;
 12767 : FF;
 12768 : FF;
 12769 : FF;
 1276A : FF;
 1276B : FF;
 1276C : FF;
 1276D : FF;
 1276E : FF;
 1276F : FF;
 12770 : FF;
 12771 : FF;
 12772 : FF;
 12773 : FF;
 12774 : FF;
 12775 : FF;
 12776 : FF;
 12777 : FF;
 12778 : FF;
 12779 : FF;
 1277A : FF;
 1277B : FF;
 1277C : FF;
 1277D : FF;
 1277E : FF;
 1277F : FF;
 12780 : FE;
 12781 : FE;
 12782 : FE;
 12783 : FF;
 12784 : FF;
 12785 : FF;
 12786 : FF;
 12787 : FF;
 12788 : FF;
 12789 : FF;
 1278A : FF;
 1278B : FF;
 1278C : FF;
 1278D : FF;
 1278E : FF;
 1278F : FE;
 12790 : FE;
 12791 : FE;
 12792 : FE;
 12793 : FE;
 12794 : FE;
 12795 : FE;
 12796 : FE;
 12797 : FE;
 12798 : FE;
 12799 : FE;
 1279A : FE;
 1279B : FE;
 1279C : FE;
 1279D : FE;
 1279E : FE;
 1279F : FE;
 127A0 : FF;
 127A1 : FF;
 127A2 : FF;
 127A3 : FF;
 127A4 : FF;
 127A5 : FF;
 127A6 : FF;
 127A7 : FF;
 127A8 : FF;
 127A9 : FF;
 127AA : FF;
 127AB : FF;
 127AC : FF;
 127AD : FE;
 127AE : FE;
 127AF : FE;
 127B0 : FE;
 127B1 : FE;
 127B2 : FE;
 127B3 : FE;
 127B4 : FE;
 127B5 : FE;
 127B6 : FE;
 127B7 : FE;
 127B8 : FF;
 127B9 : FF;
 127BA : FE;
 127BB : FF;
 127BC : FE;
 127BD : FE;
 127BE : FE;
 127BF : FF;
 127C0 : FF;
 127C1 : FF;
 127C2 : FF;
 127C3 : FF;
 127C4 : FF;
 127C5 : FF;
 127C6 : FF;
 127C7 : FF;
 127C8 : FF;
 127C9 : FF;
 127CA : FF;
 127CB : FF;
 127CC : FF;
 127CD : FF;
 127CE : FF;
 127CF : FF;
 127D0 : FF;
 127D1 : FF;
 127D2 : FF;
 127D3 : FF;
 127D4 : FF;
 127D5 : FF;
 127D6 : FF;
 127D7 : FF;
 127D8 : FF;
 127D9 : FF;
 127DA : FF;
 127DB : FF;
 127DC : FF;
 127DD : FF;
 127DE : FF;
 127DF : FF;
 127E0 : FF;
 127E1 : FF;
 127E2 : FF;
 127E3 : FF;
 127E4 : FF;
 127E5 : FF;
 127E6 : FF;
 127E7 : FF;
 127E8 : FF;
 127E9 : FF;
 127EA : FF;
 127EB : FF;
 127EC : FF;
 127ED : FF;
 127EE : FF;
 127EF : FF;
 127F0 : FF;
 127F1 : FF;
 127F2 : FF;
 127F3 : FF;
 127F4 : FF;
 127F5 : FF;
 127F6 : FF;
 127F7 : FF;
 127F8 : FF;
 127F9 : FF;
 127FA : FF;
 127FB : FF;
 127FC : FF;
 127FD : FF;
 127FE : FF;
 127FF : FF;
 12800 : FF;
 12801 : FF;
 12802 : FF;
 12803 : FF;
 12804 : FF;
 12805 : FF;
 12806 : FF;
 12807 : FF;
 12808 : FF;
 12809 : FF;
 1280A : FF;
 1280B : FF;
 1280C : FF;
 1280D : FF;
 1280E : FF;
 1280F : FF;
 12810 : FF;
 12811 : FF;
 12812 : FF;
 12813 : FF;
 12814 : FF;
 12815 : FF;
 12816 : FF;
 12817 : FF;
 12818 : FF;
 12819 : FF;
 1281A : FF;
 1281B : FF;
 1281C : FF;
 1281D : FF;
 1281E : FF;
 1281F : FF;
 12820 : FF;
 12821 : FF;
 12822 : FF;
 12823 : FF;
 12824 : FF;
 12825 : FF;
 12826 : FF;
 12827 : FF;
 12828 : FF;
 12829 : FF;
 1282A : FF;
 1282B : FF;
 1282C : FF;
 1282D : FF;
 1282E : FF;
 1282F : FF;
 12830 : FF;
 12831 : FF;
 12832 : FF;
 12833 : FF;
 12834 : FF;
 12835 : FF;
 12836 : FF;
 12837 : FF;
 12838 : FF;
 12839 : FF;
 1283A : FF;
 1283B : FF;
 1283C : FF;
 1283D : FF;
 1283E : FF;
 1283F : FF;
 12840 : FF;
 12841 : FF;
 12842 : FF;
 12843 : FF;
 12844 : FF;
 12845 : FF;
 12846 : FF;
 12847 : FF;
 12848 : FF;
 12849 : FF;
 1284A : FF;
 1284B : FF;
 1284C : FF;
 1284D : FF;
 1284E : FF;
 1284F : FF;
 12850 : FF;
 12851 : FF;
 12852 : FF;
 12853 : FF;
 12854 : FF;
 12855 : FF;
 12856 : FF;
 12857 : FF;
 12858 : FF;
 12859 : FF;
 1285A : FF;
 1285B : FF;
 1285C : FF;
 1285D : FF;
 1285E : FF;
 1285F : FF;
 12860 : FF;
 12861 : FF;
 12862 : FF;
 12863 : FF;
 12864 : FF;
 12865 : FF;
 12866 : FF;
 12867 : FF;
 12868 : FF;
 12869 : FF;
 1286A : FF;
 1286B : FF;
 1286C : FF;
 1286D : FF;
 1286E : FF;
 1286F : FF;
 12870 : FF;
 12871 : FF;
 12872 : FF;
 12873 : FF;
 12874 : FF;
 12875 : FF;
 12876 : FF;
 12877 : FF;
 12878 : FF;
 12879 : FF;
 1287A : FF;
 1287B : FF;
 1287C : FF;
 1287D : FF;
 1287E : FF;
 1287F : FF;
 12880 : FF;
 12881 : FF;
 12882 : FF;
 12883 : FF;
 12884 : FF;
 12885 : FF;
 12886 : FF;
 12887 : FF;
 12888 : FF;
 12889 : FF;
 1288A : FF;
 1288B : FF;
 1288C : FF;
 1288D : FF;
 1288E : FF;
 1288F : FF;
 12890 : FF;
 12891 : FF;
 12892 : FF;
 12893 : FF;
 12894 : FF;
 12895 : FF;
 12896 : FF;
 12897 : FF;
 12898 : FF;
 12899 : FF;
 1289A : FF;
 1289B : FF;
 1289C : FF;
 1289D : FF;
 1289E : FF;
 1289F : FF;
 128A0 : FF;
 128A1 : FF;
 128A2 : FF;
 128A3 : FF;
 128A4 : FF;
 128A5 : FF;
 128A6 : FF;
 128A7 : FF;
 128A8 : FF;
 128A9 : FF;
 128AA : FF;
 128AB : FF;
 128AC : FF;
 128AD : FF;
 128AE : FF;
 128AF : FF;
 128B0 : FF;
 128B1 : FF;
 128B2 : FF;
 128B3 : FF;
 128B4 : FF;
 128B5 : FF;
 128B6 : FF;
 128B7 : FF;
 128B8 : FF;
 128B9 : FF;
 128BA : FF;
 128BB : FF;
 128BC : FF;
 128BD : FF;
 128BE : FF;
 128BF : FF;
 128C0 : FE;
 128C1 : FE;
 128C2 : FF;
 128C3 : FF;
 128C4 : FF;
 128C5 : FF;
 128C6 : FF;
 128C7 : FF;
 128C8 : FF;
 128C9 : FF;
 128CA : FF;
 128CB : FF;
 128CC : FF;
 128CD : FF;
 128CE : FE;
 128CF : FE;
 128D0 : FE;
 128D1 : FE;
 128D2 : FE;
 128D3 : FE;
 128D4 : FE;
 128D5 : FE;
 128D6 : FE;
 128D7 : FE;
 128D8 : FE;
 128D9 : FE;
 128DA : FE;
 128DB : FE;
 128DC : FE;
 128DD : FE;
 128DE : FE;
 128DF : FF;
 128E0 : FF;
 128E1 : FF;
 128E2 : FF;
 128E3 : FF;
 128E4 : FF;
 128E5 : FF;
 128E6 : FF;
 128E7 : FF;
 128E8 : FF;
 128E9 : FF;
 128EA : FF;
 128EB : FF;
 128EC : FF;
 128ED : FF;
 128EE : FE;
 128EF : FE;
 128F0 : FE;
 128F1 : FE;
 128F2 : FE;
 128F3 : FE;
 128F4 : FE;
 128F5 : FE;
 128F6 : FE;
 128F7 : FE;
 128F8 : FE;
 128F9 : FE;
 128FA : FE;
 128FB : FE;
 128FC : FE;
 128FD : FE;
 128FE : FE;
 128FF : FF;
 12900 : FF;
 12901 : FF;
 12902 : FF;
 12903 : FF;
 12904 : FF;
 12905 : FF;
 12906 : FF;
 12907 : FF;
 12908 : FF;
 12909 : FF;
 1290A : FF;
 1290B : FF;
 1290C : FF;
 1290D : FF;
 1290E : FF;
 1290F : FF;
 12910 : FF;
 12911 : FF;
 12912 : FF;
 12913 : FF;
 12914 : FF;
 12915 : FF;
 12916 : FF;
 12917 : FF;
 12918 : FF;
 12919 : FF;
 1291A : FF;
 1291B : FF;
 1291C : FF;
 1291D : FF;
 1291E : FF;
 1291F : FF;
 12920 : FF;
 12921 : FF;
 12922 : FF;
 12923 : FF;
 12924 : FF;
 12925 : FF;
 12926 : FF;
 12927 : FF;
 12928 : FF;
 12929 : FF;
 1292A : FF;
 1292B : FF;
 1292C : FF;
 1292D : FF;
 1292E : FF;
 1292F : FF;
 12930 : FF;
 12931 : FF;
 12932 : FF;
 12933 : FF;
 12934 : FF;
 12935 : FF;
 12936 : FF;
 12937 : FF;
 12938 : FF;
 12939 : FF;
 1293A : FF;
 1293B : FF;
 1293C : FF;
 1293D : FF;
 1293E : FF;
 1293F : FF;
 12940 : FF;
 12941 : FF;
 12942 : FF;
 12943 : FF;
 12944 : FF;
 12945 : FF;
 12946 : FF;
 12947 : FF;
 12948 : FF;
 12949 : FF;
 1294A : FF;
 1294B : FF;
 1294C : FF;
 1294D : FF;
 1294E : FF;
 1294F : FF;
 12950 : FF;
 12951 : FF;
 12952 : FF;
 12953 : FF;
 12954 : FF;
 12955 : FF;
 12956 : FF;
 12957 : FF;
 12958 : FF;
 12959 : FF;
 1295A : FF;
 1295B : FF;
 1295C : FF;
 1295D : FF;
 1295E : FF;
 1295F : FF;
 12960 : FF;
 12961 : FF;
 12962 : FF;
 12963 : FF;
 12964 : FF;
 12965 : FF;
 12966 : FF;
 12967 : FF;
 12968 : FF;
 12969 : FF;
 1296A : FF;
 1296B : FF;
 1296C : FF;
 1296D : FF;
 1296E : FF;
 1296F : FF;
 12970 : FF;
 12971 : FF;
 12972 : FF;
 12973 : FF;
 12974 : FF;
 12975 : FF;
 12976 : FF;
 12977 : FF;
 12978 : FF;
 12979 : FF;
 1297A : FF;
 1297B : FF;
 1297C : FF;
 1297D : FF;
 1297E : FF;
 1297F : FF;
 12980 : FF;
 12981 : FF;
 12982 : FF;
 12983 : FF;
 12984 : FF;
 12985 : FF;
 12986 : FF;
 12987 : FF;
 12988 : FF;
 12989 : FF;
 1298A : FF;
 1298B : FF;
 1298C : FF;
 1298D : FF;
 1298E : FF;
 1298F : FF;
 12990 : FF;
 12991 : FF;
 12992 : FF;
 12993 : FF;
 12994 : FF;
 12995 : FF;
 12996 : FF;
 12997 : FF;
 12998 : FF;
 12999 : FF;
 1299A : FF;
 1299B : FF;
 1299C : FF;
 1299D : FF;
 1299E : FF;
 1299F : FF;
 129A0 : FF;
 129A1 : FF;
 129A2 : FF;
 129A3 : FF;
 129A4 : FF;
 129A5 : FF;
 129A6 : FF;
 129A7 : FF;
 129A8 : FF;
 129A9 : FF;
 129AA : FF;
 129AB : FF;
 129AC : FF;
 129AD : FF;
 129AE : FF;
 129AF : FF;
 129B0 : FF;
 129B1 : FF;
 129B2 : FF;
 129B3 : FF;
 129B4 : FF;
 129B5 : FF;
 129B6 : FF;
 129B7 : FF;
 129B8 : FF;
 129B9 : FF;
 129BA : FF;
 129BB : FF;
 129BC : FF;
 129BD : FF;
 129BE : FF;
 129BF : FF;
 129C0 : FF;
 129C1 : FF;
 129C2 : FF;
 129C3 : FF;
 129C4 : FF;
 129C5 : FF;
 129C6 : FF;
 129C7 : FF;
 129C8 : FF;
 129C9 : FF;
 129CA : FF;
 129CB : FF;
 129CC : FF;
 129CD : FF;
 129CE : FF;
 129CF : FF;
 129D0 : FF;
 129D1 : FF;
 129D2 : FF;
 129D3 : FF;
 129D4 : FF;
 129D5 : FF;
 129D6 : FF;
 129D7 : FF;
 129D8 : FF;
 129D9 : FF;
 129DA : FF;
 129DB : FF;
 129DC : FF;
 129DD : FF;
 129DE : FF;
 129DF : FF;
 129E0 : FF;
 129E1 : FF;
 129E2 : FF;
 129E3 : FF;
 129E4 : FF;
 129E5 : FF;
 129E6 : FF;
 129E7 : FF;
 129E8 : FF;
 129E9 : FF;
 129EA : FF;
 129EB : FF;
 129EC : FF;
 129ED : FF;
 129EE : FF;
 129EF : FF;
 129F0 : FF;
 129F1 : FF;
 129F2 : FF;
 129F3 : FF;
 129F4 : FF;
 129F5 : FF;
 129F6 : FF;
 129F7 : FF;
 129F8 : FF;
 129F9 : FF;
 129FA : FF;
 129FB : FF;
 129FC : FF;
 129FD : FF;
 129FE : FF;
 129FF : FF;
 12A00 : FF;
 12A01 : FF;
 12A02 : FF;
 12A03 : FF;
 12A04 : FF;
 12A05 : FF;
 12A06 : FF;
 12A07 : FF;
 12A08 : FF;
 12A09 : FE;
 12A0A : FE;
 12A0B : FE;
 12A0C : FE;
 12A0D : FE;
 12A0E : FE;
 12A0F : FF;
 12A10 : FE;
 12A11 : FF;
 12A12 : FE;
 12A13 : FF;
 12A14 : FE;
 12A15 : FF;
 12A16 : FE;
 12A17 : FE;
 12A18 : FE;
 12A19 : FE;
 12A1A : FE;
 12A1B : FE;
 12A1C : FE;
 12A1D : FE;
 12A1E : FE;
 12A1F : FE;
 12A20 : FE;
 12A21 : FE;
 12A22 : FE;
 12A23 : FE;
 12A24 : FE;
 12A25 : FE;
 12A26 : FE;
 12A27 : FF;
 12A28 : FF;
 12A29 : FF;
 12A2A : FF;
 12A2B : FF;
 12A2C : FF;
 12A2D : FF;
 12A2E : FF;
 12A2F : FE;
 12A30 : FE;
 12A31 : FE;
 12A32 : FE;
 12A33 : FF;
 12A34 : FF;
 12A35 : FF;
 12A36 : FF;
 12A37 : FF;
 12A38 : FE;
 12A39 : FE;
 12A3A : FE;
 12A3B : FE;
 12A3C : FE;
 12A3D : FE;
 12A3E : FE;
 12A3F : FF;
 12A40 : FF;
 12A41 : FF;
 12A42 : FF;
 12A43 : FF;
 12A44 : FF;
 12A45 : FF;
 12A46 : FF;
 12A47 : FF;
 12A48 : FF;
 12A49 : FF;
 12A4A : FF;
 12A4B : FF;
 12A4C : FF;
 12A4D : FF;
 12A4E : FF;
 12A4F : FF;
 12A50 : FF;
 12A51 : FF;
 12A52 : FF;
 12A53 : FF;
 12A54 : FF;
 12A55 : FF;
 12A56 : FF;
 12A57 : FF;
 12A58 : FF;
 12A59 : FF;
 12A5A : FF;
 12A5B : FF;
 12A5C : FF;
 12A5D : FF;
 12A5E : FF;
 12A5F : FF;
 12A60 : FF;
 12A61 : FF;
 12A62 : FF;
 12A63 : FF;
 12A64 : FF;
 12A65 : FF;
 12A66 : FF;
 12A67 : FF;
 12A68 : FF;
 12A69 : FF;
 12A6A : FF;
 12A6B : FF;
 12A6C : FF;
 12A6D : FF;
 12A6E : FF;
 12A6F : FF;
 12A70 : FF;
 12A71 : FF;
 12A72 : FF;
 12A73 : FF;
 12A74 : FF;
 12A75 : FF;
 12A76 : FF;
 12A77 : FF;
 12A78 : FF;
 12A79 : FF;
 12A7A : FF;
 12A7B : FF;
 12A7C : FF;
 12A7D : FF;
 12A7E : FF;
 12A7F : FF;
 12A80 : FF;
 12A81 : FF;
 12A82 : FF;
 12A83 : FF;
 12A84 : FF;
 12A85 : FF;
 12A86 : FF;
 12A87 : FF;
 12A88 : FF;
 12A89 : FF;
 12A8A : FF;
 12A8B : FF;
 12A8C : FF;
 12A8D : FF;
 12A8E : FF;
 12A8F : FF;
 12A90 : FF;
 12A91 : FF;
 12A92 : FF;
 12A93 : FF;
 12A94 : FF;
 12A95 : FF;
 12A96 : FF;
 12A97 : FF;
 12A98 : FF;
 12A99 : FF;
 12A9A : FF;
 12A9B : FF;
 12A9C : FF;
 12A9D : FF;
 12A9E : FF;
 12A9F : FF;
 12AA0 : FF;
 12AA1 : FF;
 12AA2 : FF;
 12AA3 : FF;
 12AA4 : FF;
 12AA5 : FF;
 12AA6 : FF;
 12AA7 : FF;
 12AA8 : FF;
 12AA9 : FF;
 12AAA : FF;
 12AAB : FF;
 12AAC : FF;
 12AAD : FF;
 12AAE : FF;
 12AAF : FF;
 12AB0 : FF;
 12AB1 : FF;
 12AB2 : FF;
 12AB3 : FF;
 12AB4 : FF;
 12AB5 : FF;
 12AB6 : FF;
 12AB7 : FF;
 12AB8 : FF;
 12AB9 : FF;
 12ABA : FF;
 12ABB : FF;
 12ABC : FF;
 12ABD : FF;
 12ABE : FF;
 12ABF : FF;
 12AC0 : FF;
 12AC1 : FF;
 12AC2 : FF;
 12AC3 : FF;
 12AC4 : FF;
 12AC5 : FF;
 12AC6 : FF;
 12AC7 : FF;
 12AC8 : FF;
 12AC9 : FF;
 12ACA : FF;
 12ACB : FF;
 12ACC : FF;
 12ACD : FF;
 12ACE : FF;
 12ACF : FF;
 12AD0 : FF;
 12AD1 : FF;
 12AD2 : FF;
 12AD3 : FF;
 12AD4 : FF;
 12AD5 : FF;
 12AD6 : FF;
 12AD7 : FF;
 12AD8 : FF;
 12AD9 : FF;
 12ADA : FF;
 12ADB : FF;
 12ADC : FF;
 12ADD : FF;
 12ADE : FF;
 12ADF : FF;
 12AE0 : FF;
 12AE1 : FF;
 12AE2 : FF;
 12AE3 : FF;
 12AE4 : FF;
 12AE5 : FF;
 12AE6 : FF;
 12AE7 : FF;
 12AE8 : FF;
 12AE9 : FF;
 12AEA : FF;
 12AEB : FF;
 12AEC : FF;
 12AED : FF;
 12AEE : FF;
 12AEF : FF;
 12AF0 : FF;
 12AF1 : FF;
 12AF2 : FF;
 12AF3 : FF;
 12AF4 : FF;
 12AF5 : FF;
 12AF6 : FF;
 12AF7 : FF;
 12AF8 : FF;
 12AF9 : FF;
 12AFA : FF;
 12AFB : FF;
 12AFC : FF;
 12AFD : FF;
 12AFE : FF;
 12AFF : FF;
 12B00 : FF;
 12B01 : FF;
 12B02 : FF;
 12B03 : FF;
 12B04 : FF;
 12B05 : FF;
 12B06 : FF;
 12B07 : FF;
 12B08 : FF;
 12B09 : FF;
 12B0A : FF;
 12B0B : FF;
 12B0C : FF;
 12B0D : FF;
 12B0E : FF;
 12B0F : FF;
 12B10 : FF;
 12B11 : FF;
 12B12 : FF;
 12B13 : FF;
 12B14 : FF;
 12B15 : FF;
 12B16 : FF;
 12B17 : FF;
 12B18 : FF;
 12B19 : FF;
 12B1A : FF;
 12B1B : FF;
 12B1C : FF;
 12B1D : FF;
 12B1E : FF;
 12B1F : FF;
 12B20 : FF;
 12B21 : FF;
 12B22 : FF;
 12B23 : FF;
 12B24 : FF;
 12B25 : FF;
 12B26 : FF;
 12B27 : FF;
 12B28 : FF;
 12B29 : FF;
 12B2A : FF;
 12B2B : FF;
 12B2C : FF;
 12B2D : FF;
 12B2E : FF;
 12B2F : FF;
 12B30 : FF;
 12B31 : FF;
 12B32 : FF;
 12B33 : FF;
 12B34 : FF;
 12B35 : FF;
 12B36 : FF;
 12B37 : FF;
 12B38 : FF;
 12B39 : FF;
 12B3A : FF;
 12B3B : FF;
 12B3C : FF;
 12B3D : FF;
 12B3E : FF;
 12B3F : FF;
 12B40 : FF;
 12B41 : FF;
 12B42 : FF;
 12B43 : FF;
 12B44 : FF;
 12B45 : FF;
 12B46 : FF;
 12B47 : FE;
 12B48 : FE;
 12B49 : FE;
 12B4A : FE;
 12B4B : FD;
 12B4C : FD;
 12B4D : FD;
 12B4E : FE;
 12B4F : FE;
 12B50 : FE;
 12B51 : FE;
 12B52 : FE;
 12B53 : FE;
 12B54 : FE;
 12B55 : FE;
 12B56 : FE;
 12B57 : FE;
 12B58 : FE;
 12B59 : FE;
 12B5A : FE;
 12B5B : FE;
 12B5C : FE;
 12B5D : FE;
 12B5E : FE;
 12B5F : FE;
 12B60 : FE;
 12B61 : FE;
 12B62 : FE;
 12B63 : FE;
 12B64 : FE;
 12B65 : FE;
 12B66 : FE;
 12B67 : FE;
 12B68 : FE;
 12B69 : FE;
 12B6A : FE;
 12B6B : FE;
 12B6C : FE;
 12B6D : FE;
 12B6E : FF;
 12B6F : FE;
 12B70 : FE;
 12B71 : FE;
 12B72 : FE;
 12B73 : FF;
 12B74 : FF;
 12B75 : FF;
 12B76 : FF;
 12B77 : FE;
 12B78 : FE;
 12B79 : FE;
 12B7A : FE;
 12B7B : FE;
 12B7C : FE;
 12B7D : FD;
 12B7E : FE;
 12B7F : FF;
 12B80 : FF;
 12B81 : FF;
 12B82 : FF;
 12B83 : FF;
 12B84 : FF;
 12B85 : FF;
 12B86 : FF;
 12B87 : FF;
 12B88 : FF;
 12B89 : FF;
 12B8A : FF;
 12B8B : FF;
 12B8C : FF;
 12B8D : FF;
 12B8E : FF;
 12B8F : FF;
 12B90 : FF;
 12B91 : FF;
 12B92 : FF;
 12B93 : FF;
 12B94 : FF;
 12B95 : FF;
 12B96 : FF;
 12B97 : FF;
 12B98 : FF;
 12B99 : FF;
 12B9A : FF;
 12B9B : FF;
 12B9C : FF;
 12B9D : FF;
 12B9E : FF;
 12B9F : FF;
 12BA0 : FF;
 12BA1 : FF;
 12BA2 : FF;
 12BA3 : FF;
 12BA4 : FF;
 12BA5 : FF;
 12BA6 : FF;
 12BA7 : FF;
 12BA8 : FF;
 12BA9 : FF;
 12BAA : FF;
 12BAB : FF;
 12BAC : FF;
 12BAD : FF;
 12BAE : FF;
 12BAF : FF;
 12BB0 : FF;
 12BB1 : FF;
 12BB2 : FF;
 12BB3 : FF;
 12BB4 : FF;
 12BB5 : FF;
 12BB6 : FF;
 12BB7 : FF;
 12BB8 : FF;
 12BB9 : FF;
 12BBA : FF;
 12BBB : FF;
 12BBC : FF;
 12BBD : FF;
 12BBE : FF;
 12BBF : FF;
 12BC0 : FF;
 12BC1 : FF;
 12BC2 : FF;
 12BC3 : FF;
 12BC4 : FF;
 12BC5 : FF;
 12BC6 : FF;
 12BC7 : FF;
 12BC8 : FF;
 12BC9 : FF;
 12BCA : FF;
 12BCB : FF;
 12BCC : FF;
 12BCD : FF;
 12BCE : FF;
 12BCF : FF;
 12BD0 : FF;
 12BD1 : FF;
 12BD2 : FF;
 12BD3 : FF;
 12BD4 : FF;
 12BD5 : FF;
 12BD6 : FF;
 12BD7 : FF;
 12BD8 : FF;
 12BD9 : FF;
 12BDA : FF;
 12BDB : FF;
 12BDC : FF;
 12BDD : FF;
 12BDE : FF;
 12BDF : FF;
 12BE0 : FF;
 12BE1 : FF;
 12BE2 : FF;
 12BE3 : FF;
 12BE4 : FF;
 12BE5 : FF;
 12BE6 : FF;
 12BE7 : FF;
 12BE8 : FF;
 12BE9 : FF;
 12BEA : FF;
 12BEB : FF;
 12BEC : FF;
 12BED : FF;
 12BEE : FF;
 12BEF : FF;
 12BF0 : FF;
 12BF1 : FF;
 12BF2 : FF;
 12BF3 : FF;
 12BF4 : FF;
 12BF5 : FF;
 12BF6 : FF;
 12BF7 : FF;
 12BF8 : FF;
 12BF9 : FF;
 12BFA : FF;
 12BFB : FF;
 12BFC : FF;
 12BFD : FF;
 12BFE : FF;
 12BFF : 00;
END;
