WIDTH=8;
DEPTH=76800;

ADDRESS_RADIX=HEX;
DATA_RADIX=HEX;

CONTENT BEGIN
 0 : 00;
 1 : 01;
 2 : 02;
 3 : 03;
 4 : 04;
 5 : 05;
 6 : 06;
 7 : 07;
 8 : 08;
 9 : 09;
 A : 0A;
 B : 0B;
 C : 0C;
 D : 0D;
 E : 0E;
 F : 0F;
 10 : 10;
 11 : 11;
 12 : 12;
 13 : 13;
 14 : 14;
 15 : 15;
 16 : 16;
 17 : 17;
 18 : 18;
 19 : 19;
 1A : 1A;
 1B : 1B;
 1C : 1C;
 1D : 1D;
 1E : 1E;
 1F : 1F;
 20 : 20;
 21 : 21;
 22 : 22;
 23 : 23;
 24 : 24;
 25 : 25;
 26 : 26;
 27 : 27;
 28 : 28;
 29 : 29;
 2A : 2A;
 2B : 2B;
 2C : 2C;
 2D : 2D;
 2E : 2E;
 2F : 2F;
 30 : 30;
 31 : 31;
 32 : 32;
 33 : 33;
 34 : 34;
 35 : 35;
 36 : 36;
 37 : 37;
 38 : 38;
 39 : 39;
 3A : 3A;
 3B : 3B;
 3C : 3C;
 3D : 3D;
 3E : 3E;
 3F : 3F;
 40 : 40;
 41 : 41;
 42 : 42;
 43 : 43;
 44 : 44;
 45 : 45;
 46 : 46;
 47 : 47;
 48 : 48;
 49 : 49;
 4A : 4A;
 4B : 4B;
 4C : 4C;
 4D : 4D;
 4E : 4E;
 4F : 4F;
 50 : 50;
 51 : 51;
 52 : 52;
 53 : 53;
 54 : 54;
 55 : 55;
 56 : 56;
 57 : 57;
 58 : 58;
 59 : 59;
 5A : 5A;
 5B : 5B;
 5C : 5C;
 5D : 5D;
 5E : 5E;
 5F : 5F;
 60 : 60;
 61 : 61;
 62 : 62;
 63 : 63;
 64 : 64;
 65 : 65;
 66 : 66;
 67 : 67;
 68 : 68;
 69 : 69;
 6A : 6A;
 6B : 6B;
 6C : 6C;
 6D : 6D;
 6E : 6E;
 6F : 6F;
 70 : 70;
 71 : 71;
 72 : 72;
 73 : 73;
 74 : 74;
 75 : 75;
 76 : 76;
 77 : 77;
 78 : 78;
 79 : 79;
 7A : 7A;
 7B : 7B;
 7C : 7C;
 7D : 7D;
 7E : 7E;
 7F : 7F;
 80 : 80;
 81 : 81;
 82 : 82;
 83 : 83;
 84 : 84;
 85 : 85;
 86 : 86;
 87 : 87;
 88 : 88;
 89 : 89;
 8A : 8A;
 8B : 8B;
 8C : 8C;
 8D : 8D;
 8E : 8E;
 8F : 8F;
 90 : 90;
 91 : 91;
 92 : 92;
 93 : 93;
 94 : 94;
 95 : 95;
 96 : 96;
 97 : 97;
 98 : 98;
 99 : 99;
 9A : 9A;
 9B : 9B;
 9C : 9C;
 9D : 9D;
 9E : 9E;
 9F : 9F;
 A0 : A0;
 A1 : A1;
 A2 : A2;
 A3 : A3;
 A4 : A4;
 A5 : A5;
 A6 : A6;
 A7 : A7;
 A8 : A8;
 A9 : A9;
 AA : AA;
 AB : AB;
 AC : AC;
 AD : AD;
 AE : AE;
 AF : AF;
 B0 : B0;
 B1 : B1;
 B2 : B2;
 B3 : B3;
 B4 : B4;
 B5 : B5;
 B6 : B6;
 B7 : B7;
 B8 : B8;
 B9 : B9;
 BA : BA;
 BB : BB;
 BC : BC;
 BD : BD;
 BE : BE;
 BF : BF;
 C0 : C0;
 C1 : C1;
 C2 : C2;
 C3 : C3;
 C4 : C4;
 C5 : C5;
 C6 : C6;
 C7 : C7;
 C8 : C8;
 C9 : C9;
 CA : CA;
 CB : CB;
 CC : CC;
 CD : CD;
 CE : CE;
 CF : CF;
 D0 : D0;
 D1 : D1;
 D2 : D2;
 D3 : D3;
 D4 : D4;
 D5 : D5;
 D6 : D6;
 D7 : D7;
 D8 : D8;
 D9 : D9;
 DA : DA;
 DB : DB;
 DC : DC;
 DD : DD;
 DE : DE;
 DF : DF;
 E0 : E0;
 E1 : E1;
 E2 : E2;
 E3 : E3;
 E4 : E4;
 E5 : E5;
 E6 : E6;
 E7 : E7;
 E8 : E8;
 E9 : E9;
 EA : EA;
 EB : EB;
 EC : EC;
 ED : ED;
 EE : EE;
 EF : EF;
 F0 : F0;
 F1 : F1;
 F2 : F2;
 F3 : F3;
 F4 : F4;
 F5 : F5;
 F6 : F6;
 F7 : F7;
 F8 : F8;
 F9 : F9;
 FA : FA;
 FB : FB;
 FC : FC;
 FD : FD;
 FE : FE;
 FF : FF;
 100 : 00;
 101 : 01;
 102 : 02;
 103 : 03;
 104 : 04;
 105 : 05;
 106 : 06;
 107 : 07;
 108 : 08;
 109 : 09;
 10A : 0A;
 10B : 0B;
 10C : 0C;
 10D : 0D;
 10E : 0E;
 10F : 0F;
 110 : 10;
 111 : 11;
 112 : 12;
 113 : 13;
 114 : 14;
 115 : 15;
 116 : 16;
 117 : 17;
 118 : 18;
 119 : 19;
 11A : 1A;
 11B : 1B;
 11C : 1C;
 11D : 1D;
 11E : 1E;
 11F : 1F;
 120 : 20;
 121 : 21;
 122 : 22;
 123 : 23;
 124 : 24;
 125 : 25;
 126 : 26;
 127 : 27;
 128 : 28;
 129 : 29;
 12A : 2A;
 12B : 2B;
 12C : 2C;
 12D : 2D;
 12E : 2E;
 12F : 2F;
 130 : 30;
 131 : 31;
 132 : 32;
 133 : 33;
 134 : 34;
 135 : 35;
 136 : 36;
 137 : 37;
 138 : 38;
 139 : 39;
 13A : 3A;
 13B : 3B;
 13C : 3C;
 13D : 3D;
 13E : 3E;
 13F : 3F;
 140 : 40;
 141 : 41;
 142 : 42;
 143 : 43;
 144 : 44;
 145 : 45;
 146 : 46;
 147 : 47;
 148 : 48;
 149 : 49;
 14A : 4A;
 14B : 4B;
 14C : 4C;
 14D : 4D;
 14E : 4E;
 14F : 4F;
 150 : 50;
 151 : 51;
 152 : 52;
 153 : 53;
 154 : 54;
 155 : 55;
 156 : 56;
 157 : 57;
 158 : 58;
 159 : 59;
 15A : 5A;
 15B : 5B;
 15C : 5C;
 15D : 5D;
 15E : 5E;
 15F : 5F;
 160 : 60;
 161 : 61;
 162 : 62;
 163 : 63;
 164 : 64;
 165 : 65;
 166 : 66;
 167 : 67;
 168 : 68;
 169 : 69;
 16A : 6A;
 16B : 6B;
 16C : 6C;
 16D : 6D;
 16E : 6E;
 16F : 6F;
 170 : 70;
 171 : 71;
 172 : 72;
 173 : 73;
 174 : 74;
 175 : 75;
 176 : 76;
 177 : 77;
 178 : 78;
 179 : 79;
 17A : 7A;
 17B : 7B;
 17C : 7C;
 17D : 7D;
 17E : 7E;
 17F : 7F;
 180 : 80;
 181 : 81;
 182 : 82;
 183 : 83;
 184 : 84;
 185 : 85;
 186 : 86;
 187 : 87;
 188 : 88;
 189 : 89;
 18A : 8A;
 18B : 8B;
 18C : 8C;
 18D : 8D;
 18E : 8E;
 18F : 8F;
 190 : 90;
 191 : 91;
 192 : 92;
 193 : 93;
 194 : 94;
 195 : 95;
 196 : 96;
 197 : 97;
 198 : 98;
 199 : 99;
 19A : 9A;
 19B : 9B;
 19C : 9C;
 19D : 9D;
 19E : 9E;
 19F : 9F;
 1A0 : A0;
 1A1 : A1;
 1A2 : A2;
 1A3 : A3;
 1A4 : A4;
 1A5 : A5;
 1A6 : A6;
 1A7 : A7;
 1A8 : A8;
 1A9 : A9;
 1AA : AA;
 1AB : AB;
 1AC : AC;
 1AD : AD;
 1AE : AE;
 1AF : AF;
 1B0 : B0;
 1B1 : B1;
 1B2 : B2;
 1B3 : B3;
 1B4 : B4;
 1B5 : B5;
 1B6 : B6;
 1B7 : B7;
 1B8 : B8;
 1B9 : B9;
 1BA : BA;
 1BB : BB;
 1BC : BC;
 1BD : BD;
 1BE : BE;
 1BF : BF;
 1C0 : C0;
 1C1 : C1;
 1C2 : C2;
 1C3 : C3;
 1C4 : C4;
 1C5 : C5;
 1C6 : C6;
 1C7 : C7;
 1C8 : C8;
 1C9 : C9;
 1CA : CA;
 1CB : CB;
 1CC : CC;
 1CD : CD;
 1CE : CE;
 1CF : CF;
 1D0 : D0;
 1D1 : D1;
 1D2 : D2;
 1D3 : D3;
 1D4 : D4;
 1D5 : D5;
 1D6 : D6;
 1D7 : D7;
 1D8 : D8;
 1D9 : D9;
 1DA : DA;
 1DB : DB;
 1DC : DC;
 1DD : DD;
 1DE : DE;
 1DF : DF;
 1E0 : E0;
 1E1 : E1;
 1E2 : E2;
 1E3 : E3;
 1E4 : E4;
 1E5 : E5;
 1E6 : E6;
 1E7 : E7;
 1E8 : E8;
 1E9 : E9;
 1EA : EA;
 1EB : EB;
 1EC : EC;
 1ED : ED;
 1EE : EE;
 1EF : EF;
 1F0 : F0;
 1F1 : F1;
 1F2 : F2;
 1F3 : F3;
 1F4 : F4;
 1F5 : F5;
 1F6 : F6;
 1F7 : F7;
 1F8 : F8;
 1F9 : F9;
 1FA : FA;
 1FB : FB;
 1FC : FC;
 1FD : FD;
 1FE : FE;
 1FF : FF;
 200 : 00;
 201 : 01;
 202 : 02;
 203 : 03;
 204 : 04;
 205 : 05;
 206 : 06;
 207 : 07;
 208 : 08;
 209 : 09;
 20A : 0A;
 20B : 0B;
 20C : 0C;
 20D : 0D;
 20E : 0E;
 20F : 0F;
 210 : 10;
 211 : 11;
 212 : 12;
 213 : 13;
 214 : 14;
 215 : 15;
 216 : 16;
 217 : 17;
 218 : 18;
 219 : 19;
 21A : 1A;
 21B : 1B;
 21C : 1C;
 21D : 1D;
 21E : 1E;
 21F : 1F;
 220 : 20;
 221 : 21;
 222 : 22;
 223 : 23;
 224 : 24;
 225 : 25;
 226 : 26;
 227 : 27;
 228 : 28;
 229 : 29;
 22A : 2A;
 22B : 2B;
 22C : 2C;
 22D : 2D;
 22E : 2E;
 22F : 2F;
 230 : 30;
 231 : 31;
 232 : 32;
 233 : 33;
 234 : 34;
 235 : 35;
 236 : 36;
 237 : 37;
 238 : 38;
 239 : 39;
 23A : 3A;
 23B : 3B;
 23C : 3C;
 23D : 3D;
 23E : 3E;
 23F : 3F;
 240 : 40;
 241 : 41;
 242 : 42;
 243 : 43;
 244 : 44;
 245 : 45;
 246 : 46;
 247 : 47;
 248 : 48;
 249 : 49;
 24A : 4A;
 24B : 4B;
 24C : 4C;
 24D : 4D;
 24E : 4E;
 24F : 4F;
 250 : 50;
 251 : 51;
 252 : 52;
 253 : 53;
 254 : 54;
 255 : 55;
 256 : 56;
 257 : 57;
 258 : 58;
 259 : 59;
 25A : 5A;
 25B : 5B;
 25C : 5C;
 25D : 5D;
 25E : 5E;
 25F : 5F;
 260 : 60;
 261 : 61;
 262 : 62;
 263 : 63;
 264 : 64;
 265 : 65;
 266 : 66;
 267 : 67;
 268 : 68;
 269 : 69;
 26A : 6A;
 26B : 6B;
 26C : 6C;
 26D : 6D;
 26E : 6E;
 26F : 6F;
 270 : 70;
 271 : 71;
 272 : 72;
 273 : 73;
 274 : 74;
 275 : 75;
 276 : 76;
 277 : 77;
 278 : 78;
 279 : 79;
 27A : 7A;
 27B : 7B;
 27C : 7C;
 27D : 7D;
 27E : 7E;
 27F : 7F;
 280 : 80;
 281 : 81;
 282 : 82;
 283 : 83;
 284 : 84;
 285 : 85;
 286 : 86;
 287 : 87;
 288 : 88;
 289 : 89;
 28A : 8A;
 28B : 8B;
 28C : 8C;
 28D : 8D;
 28E : 8E;
 28F : 8F;
 290 : 90;
 291 : 91;
 292 : 92;
 293 : 93;
 294 : 94;
 295 : 95;
 296 : 96;
 297 : 97;
 298 : 98;
 299 : 99;
 29A : 9A;
 29B : 9B;
 29C : 9C;
 29D : 9D;
 29E : 9E;
 29F : 9F;
 2A0 : A0;
 2A1 : A1;
 2A2 : A2;
 2A3 : A3;
 2A4 : A4;
 2A5 : A5;
 2A6 : A6;
 2A7 : A7;
 2A8 : A8;
 2A9 : A9;
 2AA : AA;
 2AB : AB;
 2AC : AC;
 2AD : AD;
 2AE : AE;
 2AF : AF;
 2B0 : B0;
 2B1 : B1;
 2B2 : B2;
 2B3 : B3;
 2B4 : B4;
 2B5 : B5;
 2B6 : B6;
 2B7 : B7;
 2B8 : B8;
 2B9 : B9;
 2BA : BA;
 2BB : BB;
 2BC : BC;
 2BD : BD;
 2BE : BE;
 2BF : BF;
 2C0 : C0;
 2C1 : C1;
 2C2 : C2;
 2C3 : C3;
 2C4 : C4;
 2C5 : C5;
 2C6 : C6;
 2C7 : C7;
 2C8 : C8;
 2C9 : C9;
 2CA : CA;
 2CB : CB;
 2CC : CC;
 2CD : CD;
 2CE : CE;
 2CF : CF;
 2D0 : D0;
 2D1 : D1;
 2D2 : D2;
 2D3 : D3;
 2D4 : D4;
 2D5 : D5;
 2D6 : D6;
 2D7 : D7;
 2D8 : D8;
 2D9 : D9;
 2DA : DA;
 2DB : DB;
 2DC : DC;
 2DD : DD;
 2DE : DE;
 2DF : DF;
 2E0 : E0;
 2E1 : E1;
 2E2 : E2;
 2E3 : E3;
 2E4 : E4;
 2E5 : E5;
 2E6 : E6;
 2E7 : E7;
 2E8 : E8;
 2E9 : E9;
 2EA : EA;
 2EB : EB;
 2EC : EC;
 2ED : ED;
 2EE : EE;
 2EF : EF;
 2F0 : F0;
 2F1 : F1;
 2F2 : F2;
 2F3 : F3;
 2F4 : F4;
 2F5 : F5;
 2F6 : F6;
 2F7 : F7;
 2F8 : F8;
 2F9 : F9;
 2FA : FA;
 2FB : FB;
 2FC : FC;
 2FD : FD;
 2FE : FE;
 2FF : FF;
 300 : 00;
 301 : 01;
 302 : 02;
 303 : 03;
 304 : 04;
 305 : 05;
 306 : 06;
 307 : 07;
 308 : 08;
 309 : 09;
 30A : 0A;
 30B : 0B;
 30C : 0C;
 30D : 0D;
 30E : 0E;
 30F : 0F;
 310 : 10;
 311 : 11;
 312 : 12;
 313 : 13;
 314 : 14;
 315 : 15;
 316 : 16;
 317 : 17;
 318 : 18;
 319 : 19;
 31A : 1A;
 31B : 1B;
 31C : 1C;
 31D : 1D;
 31E : 1E;
 31F : 1F;
 320 : 20;
 321 : 21;
 322 : 22;
 323 : 23;
 324 : 24;
 325 : 25;
 326 : 26;
 327 : 27;
 328 : 28;
 329 : 29;
 32A : 2A;
 32B : 2B;
 32C : 2C;
 32D : 2D;
 32E : 2E;
 32F : 2F;
 330 : 30;
 331 : 31;
 332 : 32;
 333 : 33;
 334 : 34;
 335 : 35;
 336 : 36;
 337 : 37;
 338 : 38;
 339 : 39;
 33A : 3A;
 33B : 3B;
 33C : 3C;
 33D : 3D;
 33E : 3E;
 33F : 3F;
 340 : 40;
 341 : 41;
 342 : 42;
 343 : 43;
 344 : 44;
 345 : 45;
 346 : 46;
 347 : 47;
 348 : 48;
 349 : 49;
 34A : 4A;
 34B : 4B;
 34C : 4C;
 34D : 4D;
 34E : 4E;
 34F : 4F;
 350 : 50;
 351 : 51;
 352 : 52;
 353 : 53;
 354 : 54;
 355 : 55;
 356 : 56;
 357 : 57;
 358 : 58;
 359 : 59;
 35A : 5A;
 35B : 5B;
 35C : 5C;
 35D : 5D;
 35E : 5E;
 35F : 5F;
 360 : 60;
 361 : 61;
 362 : 62;
 363 : 63;
 364 : 64;
 365 : 65;
 366 : 66;
 367 : 67;
 368 : 68;
 369 : 69;
 36A : 6A;
 36B : 6B;
 36C : 6C;
 36D : 6D;
 36E : 6E;
 36F : 6F;
 370 : 70;
 371 : 71;
 372 : 72;
 373 : 73;
 374 : 74;
 375 : 75;
 376 : 76;
 377 : 77;
 378 : 78;
 379 : 79;
 37A : 7A;
 37B : 7B;
 37C : 7C;
 37D : 7D;
 37E : 7E;
 37F : 7F;
 380 : 80;
 381 : 81;
 382 : 82;
 383 : 83;
 384 : 84;
 385 : 85;
 386 : 86;
 387 : 87;
 388 : 88;
 389 : 89;
 38A : 8A;
 38B : 8B;
 38C : 8C;
 38D : 8D;
 38E : 8E;
 38F : 8F;
 390 : 90;
 391 : 91;
 392 : 92;
 393 : 93;
 394 : 94;
 395 : 95;
 396 : 96;
 397 : 97;
 398 : 98;
 399 : 99;
 39A : 9A;
 39B : 9B;
 39C : 9C;
 39D : 9D;
 39E : 9E;
 39F : 9F;
 3A0 : A0;
 3A1 : A1;
 3A2 : A2;
 3A3 : A3;
 3A4 : A4;
 3A5 : A5;
 3A6 : A6;
 3A7 : A7;
 3A8 : A8;
 3A9 : A9;
 3AA : AA;
 3AB : AB;
 3AC : AC;
 3AD : AD;
 3AE : AE;
 3AF : AF;
 3B0 : B0;
 3B1 : B1;
 3B2 : B2;
 3B3 : B3;
 3B4 : B4;
 3B5 : B5;
 3B6 : B6;
 3B7 : B7;
 3B8 : B8;
 3B9 : B9;
 3BA : BA;
 3BB : BB;
 3BC : BC;
 3BD : BD;
 3BE : BE;
 3BF : BF;
 3C0 : C0;
 3C1 : C1;
 3C2 : C2;
 3C3 : C3;
 3C4 : C4;
 3C5 : C5;
 3C6 : C6;
 3C7 : C7;
 3C8 : C8;
 3C9 : C9;
 3CA : CA;
 3CB : CB;
 3CC : CC;
 3CD : CD;
 3CE : CE;
 3CF : CF;
 3D0 : D0;
 3D1 : D1;
 3D2 : D2;
 3D3 : D3;
 3D4 : D4;
 3D5 : D5;
 3D6 : D6;
 3D7 : D7;
 3D8 : D8;
 3D9 : D9;
 3DA : DA;
 3DB : DB;
 3DC : DC;
 3DD : DD;
 3DE : DE;
 3DF : DF;
 3E0 : E0;
 3E1 : E1;
 3E2 : E2;
 3E3 : E3;
 3E4 : E4;
 3E5 : E5;
 3E6 : E6;
 3E7 : E7;
 3E8 : E8;
 3E9 : E9;
 3EA : EA;
 3EB : EB;
 3EC : EC;
 3ED : ED;
 3EE : EE;
 3EF : EF;
 3F0 : F0;
 3F1 : F1;
 3F2 : F2;
 3F3 : F3;
 3F4 : F4;
 3F5 : F5;
 3F6 : F6;
 3F7 : F7;
 3F8 : F8;
 3F9 : F9;
 3FA : FA;
 3FB : FB;
 3FC : FC;
 3FD : FD;
 3FE : FE;
 3FF : FF;
 400 : 00;
 401 : 01;
 402 : 02;
 403 : 03;
 404 : 04;
 405 : 05;
 406 : 06;
 407 : 07;
 408 : 08;
 409 : 09;
 40A : 0A;
 40B : 0B;
 40C : 0C;
 40D : 0D;
 40E : 0E;
 40F : 0F;
 410 : 10;
 411 : 11;
 412 : 12;
 413 : 13;
 414 : 14;
 415 : 15;
 416 : 16;
 417 : 17;
 418 : 18;
 419 : 19;
 41A : 1A;
 41B : 1B;
 41C : 1C;
 41D : 1D;
 41E : 1E;
 41F : 1F;
 420 : 20;
 421 : 21;
 422 : 22;
 423 : 23;
 424 : 24;
 425 : 25;
 426 : 26;
 427 : 27;
 428 : 28;
 429 : 29;
 42A : 2A;
 42B : 2B;
 42C : 2C;
 42D : 2D;
 42E : 2E;
 42F : 2F;
 430 : 30;
 431 : 31;
 432 : 32;
 433 : 33;
 434 : 34;
 435 : 35;
 436 : 36;
 437 : 37;
 438 : 38;
 439 : 39;
 43A : 3A;
 43B : 3B;
 43C : 3C;
 43D : 3D;
 43E : 3E;
 43F : 3F;
 440 : 40;
 441 : 41;
 442 : 42;
 443 : 43;
 444 : 44;
 445 : 45;
 446 : 46;
 447 : 47;
 448 : 48;
 449 : 49;
 44A : 4A;
 44B : 4B;
 44C : 4C;
 44D : 4D;
 44E : 4E;
 44F : 4F;
 450 : 50;
 451 : 51;
 452 : 52;
 453 : 53;
 454 : 54;
 455 : 55;
 456 : 56;
 457 : 57;
 458 : 58;
 459 : 59;
 45A : 5A;
 45B : 5B;
 45C : 5C;
 45D : 5D;
 45E : 5E;
 45F : 5F;
 460 : 60;
 461 : 61;
 462 : 62;
 463 : 63;
 464 : 64;
 465 : 65;
 466 : 66;
 467 : 67;
 468 : 68;
 469 : 69;
 46A : 6A;
 46B : 6B;
 46C : 6C;
 46D : 6D;
 46E : 6E;
 46F : 6F;
 470 : 70;
 471 : 71;
 472 : 72;
 473 : 73;
 474 : 74;
 475 : 75;
 476 : 76;
 477 : 77;
 478 : 78;
 479 : 79;
 47A : 7A;
 47B : 7B;
 47C : 7C;
 47D : 7D;
 47E : 7E;
 47F : 7F;
 480 : 80;
 481 : 81;
 482 : 82;
 483 : 83;
 484 : 84;
 485 : 85;
 486 : 86;
 487 : 87;
 488 : 88;
 489 : 89;
 48A : 8A;
 48B : 8B;
 48C : 8C;
 48D : 8D;
 48E : 8E;
 48F : 8F;
 490 : 90;
 491 : 91;
 492 : 92;
 493 : 93;
 494 : 94;
 495 : 95;
 496 : 96;
 497 : 97;
 498 : 98;
 499 : 99;
 49A : 9A;
 49B : 9B;
 49C : 9C;
 49D : 9D;
 49E : 9E;
 49F : 9F;
 4A0 : A0;
 4A1 : A1;
 4A2 : A2;
 4A3 : A3;
 4A4 : A4;
 4A5 : A5;
 4A6 : A6;
 4A7 : A7;
 4A8 : A8;
 4A9 : A9;
 4AA : AA;
 4AB : AB;
 4AC : AC;
 4AD : AD;
 4AE : AE;
 4AF : AF;
 4B0 : B0;
 4B1 : B1;
 4B2 : B2;
 4B3 : B3;
 4B4 : B4;
 4B5 : B5;
 4B6 : B6;
 4B7 : B7;
 4B8 : B8;
 4B9 : B9;
 4BA : BA;
 4BB : BB;
 4BC : BC;
 4BD : BD;
 4BE : BE;
 4BF : BF;
 4C0 : C0;
 4C1 : C1;
 4C2 : C2;
 4C3 : C3;
 4C4 : C4;
 4C5 : C5;
 4C6 : C6;
 4C7 : C7;
 4C8 : C8;
 4C9 : C9;
 4CA : CA;
 4CB : CB;
 4CC : CC;
 4CD : CD;
 4CE : CE;
 4CF : CF;
 4D0 : D0;
 4D1 : D1;
 4D2 : D2;
 4D3 : D3;
 4D4 : D4;
 4D5 : D5;
 4D6 : D6;
 4D7 : D7;
 4D8 : D8;
 4D9 : D9;
 4DA : DA;
 4DB : DB;
 4DC : DC;
 4DD : DD;
 4DE : DE;
 4DF : DF;
 4E0 : E0;
 4E1 : E1;
 4E2 : E2;
 4E3 : E3;
 4E4 : E4;
 4E5 : E5;
 4E6 : E6;
 4E7 : E7;
 4E8 : E8;
 4E9 : E9;
 4EA : EA;
 4EB : EB;
 4EC : EC;
 4ED : ED;
 4EE : EE;
 4EF : EF;
 4F0 : F0;
 4F1 : F1;
 4F2 : F2;
 4F3 : F3;
 4F4 : F4;
 4F5 : F5;
 4F6 : F6;
 4F7 : F7;
 4F8 : F8;
 4F9 : F9;
 4FA : FA;
 4FB : FB;
 4FC : FC;
 4FD : FD;
 4FE : FE;
 4FF : FF;
 500 : 00;
 501 : 01;
 502 : 02;
 503 : 03;
 504 : 04;
 505 : 05;
 506 : 06;
 507 : 07;
 508 : 08;
 509 : 09;
 50A : 0A;
 50B : 0B;
 50C : 0C;
 50D : 0D;
 50E : 0E;
 50F : 0F;
 510 : 10;
 511 : 11;
 512 : 12;
 513 : 13;
 514 : 14;
 515 : 15;
 516 : 16;
 517 : 17;
 518 : 18;
 519 : 19;
 51A : 1A;
 51B : 1B;
 51C : 1C;
 51D : 1D;
 51E : 1E;
 51F : 1F;
 520 : 20;
 521 : 21;
 522 : 22;
 523 : 23;
 524 : 24;
 525 : 25;
 526 : 26;
 527 : 27;
 528 : 28;
 529 : 29;
 52A : 2A;
 52B : 2B;
 52C : 2C;
 52D : 2D;
 52E : 2E;
 52F : 2F;
 530 : 30;
 531 : 31;
 532 : 32;
 533 : 33;
 534 : 34;
 535 : 35;
 536 : 36;
 537 : 37;
 538 : 38;
 539 : 39;
 53A : 3A;
 53B : 3B;
 53C : 3C;
 53D : 3D;
 53E : 3E;
 53F : 3F;
 540 : 40;
 541 : 41;
 542 : 42;
 543 : 43;
 544 : 44;
 545 : 45;
 546 : 46;
 547 : 47;
 548 : 48;
 549 : 49;
 54A : 4A;
 54B : 4B;
 54C : 4C;
 54D : 4D;
 54E : 4E;
 54F : 4F;
 550 : 50;
 551 : 51;
 552 : 52;
 553 : 53;
 554 : 54;
 555 : 55;
 556 : 56;
 557 : 57;
 558 : 58;
 559 : 59;
 55A : 5A;
 55B : 5B;
 55C : 5C;
 55D : 5D;
 55E : 5E;
 55F : 5F;
 560 : 60;
 561 : 61;
 562 : 62;
 563 : 63;
 564 : 64;
 565 : 65;
 566 : 66;
 567 : 67;
 568 : 68;
 569 : 69;
 56A : 6A;
 56B : 6B;
 56C : 6C;
 56D : 6D;
 56E : 6E;
 56F : 6F;
 570 : 70;
 571 : 71;
 572 : 72;
 573 : 73;
 574 : 74;
 575 : 75;
 576 : 76;
 577 : 77;
 578 : 78;
 579 : 79;
 57A : 7A;
 57B : 7B;
 57C : 7C;
 57D : 7D;
 57E : 7E;
 57F : 7F;
 580 : 80;
 581 : 81;
 582 : 82;
 583 : 83;
 584 : 84;
 585 : 85;
 586 : 86;
 587 : 87;
 588 : 88;
 589 : 89;
 58A : 8A;
 58B : 8B;
 58C : 8C;
 58D : 8D;
 58E : 8E;
 58F : 8F;
 590 : 90;
 591 : 91;
 592 : 92;
 593 : 93;
 594 : 94;
 595 : 95;
 596 : 96;
 597 : 97;
 598 : 98;
 599 : 99;
 59A : 9A;
 59B : 9B;
 59C : 9C;
 59D : 9D;
 59E : 9E;
 59F : 9F;
 5A0 : A0;
 5A1 : A1;
 5A2 : A2;
 5A3 : A3;
 5A4 : A4;
 5A5 : A5;
 5A6 : A6;
 5A7 : A7;
 5A8 : A8;
 5A9 : A9;
 5AA : AA;
 5AB : AB;
 5AC : AC;
 5AD : AD;
 5AE : AE;
 5AF : AF;
 5B0 : B0;
 5B1 : B1;
 5B2 : B2;
 5B3 : B3;
 5B4 : B4;
 5B5 : B5;
 5B6 : B6;
 5B7 : B7;
 5B8 : B8;
 5B9 : B9;
 5BA : BA;
 5BB : BB;
 5BC : BC;
 5BD : BD;
 5BE : BE;
 5BF : BF;
 5C0 : C0;
 5C1 : C1;
 5C2 : C2;
 5C3 : C3;
 5C4 : C4;
 5C5 : C5;
 5C6 : C6;
 5C7 : C7;
 5C8 : C8;
 5C9 : C9;
 5CA : CA;
 5CB : CB;
 5CC : CC;
 5CD : CD;
 5CE : CE;
 5CF : CF;
 5D0 : D0;
 5D1 : D1;
 5D2 : D2;
 5D3 : D3;
 5D4 : D4;
 5D5 : D5;
 5D6 : D6;
 5D7 : D7;
 5D8 : D8;
 5D9 : D9;
 5DA : DA;
 5DB : DB;
 5DC : DC;
 5DD : DD;
 5DE : DE;
 5DF : DF;
 5E0 : E0;
 5E1 : E1;
 5E2 : E2;
 5E3 : E3;
 5E4 : E4;
 5E5 : E5;
 5E6 : E6;
 5E7 : E7;
 5E8 : E8;
 5E9 : E9;
 5EA : EA;
 5EB : EB;
 5EC : EC;
 5ED : ED;
 5EE : EE;
 5EF : EF;
 5F0 : F0;
 5F1 : F1;
 5F2 : F2;
 5F3 : F3;
 5F4 : F4;
 5F5 : F5;
 5F6 : F6;
 5F7 : F7;
 5F8 : F8;
 5F9 : F9;
 5FA : FA;
 5FB : FB;
 5FC : FC;
 5FD : FD;
 5FE : FE;
 5FF : FF;
 600 : 00;
 601 : 01;
 602 : 02;
 603 : 03;
 604 : 04;
 605 : 05;
 606 : 06;
 607 : 07;
 608 : 08;
 609 : 09;
 60A : 0A;
 60B : 0B;
 60C : 0C;
 60D : 0D;
 60E : 0E;
 60F : 0F;
 610 : 10;
 611 : 11;
 612 : 12;
 613 : 13;
 614 : 14;
 615 : 15;
 616 : 16;
 617 : 17;
 618 : 18;
 619 : 19;
 61A : 1A;
 61B : 1B;
 61C : 1C;
 61D : 1D;
 61E : 1E;
 61F : 1F;
 620 : 20;
 621 : 21;
 622 : 22;
 623 : 23;
 624 : 24;
 625 : 25;
 626 : 26;
 627 : 27;
 628 : 28;
 629 : 29;
 62A : 2A;
 62B : 2B;
 62C : 2C;
 62D : 2D;
 62E : 2E;
 62F : 2F;
 630 : 30;
 631 : 31;
 632 : 32;
 633 : 33;
 634 : 34;
 635 : 35;
 636 : 36;
 637 : 37;
 638 : 38;
 639 : 39;
 63A : 3A;
 63B : 3B;
 63C : 3C;
 63D : 3D;
 63E : 3E;
 63F : 3F;
 640 : 40;
 641 : 41;
 642 : 42;
 643 : 43;
 644 : 44;
 645 : 45;
 646 : 46;
 647 : 47;
 648 : 48;
 649 : 49;
 64A : 4A;
 64B : 4B;
 64C : 4C;
 64D : 4D;
 64E : 4E;
 64F : 4F;
 650 : 50;
 651 : 51;
 652 : 52;
 653 : 53;
 654 : 54;
 655 : 55;
 656 : 56;
 657 : 57;
 658 : 58;
 659 : 59;
 65A : 5A;
 65B : 5B;
 65C : 5C;
 65D : 5D;
 65E : 5E;
 65F : 5F;
 660 : 60;
 661 : 61;
 662 : 62;
 663 : 63;
 664 : 64;
 665 : 65;
 666 : 66;
 667 : 67;
 668 : 68;
 669 : 69;
 66A : 6A;
 66B : 6B;
 66C : 6C;
 66D : 6D;
 66E : 6E;
 66F : 6F;
 670 : 70;
 671 : 71;
 672 : 72;
 673 : 73;
 674 : 74;
 675 : 75;
 676 : 76;
 677 : 77;
 678 : 78;
 679 : 79;
 67A : 7A;
 67B : 7B;
 67C : 7C;
 67D : 7D;
 67E : 7E;
 67F : 7F;
 680 : 80;
 681 : 81;
 682 : 82;
 683 : 83;
 684 : 84;
 685 : 85;
 686 : 86;
 687 : 87;
 688 : 88;
 689 : 89;
 68A : 8A;
 68B : 8B;
 68C : 8C;
 68D : 8D;
 68E : 8E;
 68F : 8F;
 690 : 90;
 691 : 91;
 692 : 92;
 693 : 93;
 694 : 94;
 695 : 95;
 696 : 96;
 697 : 97;
 698 : 98;
 699 : 99;
 69A : 9A;
 69B : 9B;
 69C : 9C;
 69D : 9D;
 69E : 9E;
 69F : 9F;
 6A0 : A0;
 6A1 : A1;
 6A2 : A2;
 6A3 : A3;
 6A4 : A4;
 6A5 : A5;
 6A6 : A6;
 6A7 : A7;
 6A8 : A8;
 6A9 : A9;
 6AA : AA;
 6AB : AB;
 6AC : AC;
 6AD : AD;
 6AE : AE;
 6AF : AF;
 6B0 : B0;
 6B1 : B1;
 6B2 : B2;
 6B3 : B3;
 6B4 : B4;
 6B5 : B5;
 6B6 : B6;
 6B7 : B7;
 6B8 : B8;
 6B9 : B9;
 6BA : BA;
 6BB : BB;
 6BC : BC;
 6BD : BD;
 6BE : BE;
 6BF : BF;
 6C0 : C0;
 6C1 : C1;
 6C2 : C2;
 6C3 : C3;
 6C4 : C4;
 6C5 : C5;
 6C6 : C6;
 6C7 : C7;
 6C8 : C8;
 6C9 : C9;
 6CA : CA;
 6CB : CB;
 6CC : CC;
 6CD : CD;
 6CE : CE;
 6CF : CF;
 6D0 : D0;
 6D1 : D1;
 6D2 : D2;
 6D3 : D3;
 6D4 : D4;
 6D5 : D5;
 6D6 : D6;
 6D7 : D7;
 6D8 : D8;
 6D9 : D9;
 6DA : DA;
 6DB : DB;
 6DC : DC;
 6DD : DD;
 6DE : DE;
 6DF : DF;
 6E0 : E0;
 6E1 : E1;
 6E2 : E2;
 6E3 : E3;
 6E4 : E4;
 6E5 : E5;
 6E6 : E6;
 6E7 : E7;
 6E8 : E8;
 6E9 : E9;
 6EA : EA;
 6EB : EB;
 6EC : EC;
 6ED : ED;
 6EE : EE;
 6EF : EF;
 6F0 : F0;
 6F1 : F1;
 6F2 : F2;
 6F3 : F3;
 6F4 : F4;
 6F5 : F5;
 6F6 : F6;
 6F7 : F7;
 6F8 : F8;
 6F9 : F9;
 6FA : FA;
 6FB : FB;
 6FC : FC;
 6FD : FD;
 6FE : FE;
 6FF : FF;
 700 : 00;
 701 : 01;
 702 : 02;
 703 : 03;
 704 : 04;
 705 : 05;
 706 : 06;
 707 : 07;
 708 : 08;
 709 : 09;
 70A : 0A;
 70B : 0B;
 70C : 0C;
 70D : 0D;
 70E : 0E;
 70F : 0F;
 710 : 10;
 711 : 11;
 712 : 12;
 713 : 13;
 714 : 14;
 715 : 15;
 716 : 16;
 717 : 17;
 718 : 18;
 719 : 19;
 71A : 1A;
 71B : 1B;
 71C : 1C;
 71D : 1D;
 71E : 1E;
 71F : 1F;
 720 : 20;
 721 : 21;
 722 : 22;
 723 : 23;
 724 : 24;
 725 : 25;
 726 : 26;
 727 : 27;
 728 : 28;
 729 : 29;
 72A : 2A;
 72B : 2B;
 72C : 2C;
 72D : 2D;
 72E : 2E;
 72F : 2F;
 730 : 30;
 731 : 31;
 732 : 32;
 733 : 33;
 734 : 34;
 735 : 35;
 736 : 36;
 737 : 37;
 738 : 38;
 739 : 39;
 73A : 3A;
 73B : 3B;
 73C : 3C;
 73D : 3D;
 73E : 3E;
 73F : 3F;
 740 : 40;
 741 : 41;
 742 : 42;
 743 : 43;
 744 : 44;
 745 : 45;
 746 : 46;
 747 : 47;
 748 : 48;
 749 : 49;
 74A : 4A;
 74B : 4B;
 74C : 4C;
 74D : 4D;
 74E : 4E;
 74F : 4F;
 750 : 50;
 751 : 51;
 752 : 52;
 753 : 53;
 754 : 54;
 755 : 55;
 756 : 56;
 757 : 57;
 758 : 58;
 759 : 59;
 75A : 5A;
 75B : 5B;
 75C : 5C;
 75D : 5D;
 75E : 5E;
 75F : 5F;
 760 : 60;
 761 : 61;
 762 : 62;
 763 : 63;
 764 : 64;
 765 : 65;
 766 : 66;
 767 : 67;
 768 : 68;
 769 : 69;
 76A : 6A;
 76B : 6B;
 76C : 6C;
 76D : 6D;
 76E : 6E;
 76F : 6F;
 770 : 70;
 771 : 71;
 772 : 72;
 773 : 73;
 774 : 74;
 775 : 75;
 776 : 76;
 777 : 77;
 778 : 78;
 779 : 79;
 77A : 7A;
 77B : 7B;
 77C : 7C;
 77D : 7D;
 77E : 7E;
 77F : 7F;
 780 : 80;
 781 : 81;
 782 : 82;
 783 : 83;
 784 : 84;
 785 : 85;
 786 : 86;
 787 : 87;
 788 : 88;
 789 : 89;
 78A : 8A;
 78B : 8B;
 78C : 8C;
 78D : 8D;
 78E : 8E;
 78F : 8F;
 790 : 90;
 791 : 91;
 792 : 92;
 793 : 93;
 794 : 94;
 795 : 95;
 796 : 96;
 797 : 97;
 798 : 98;
 799 : 99;
 79A : 9A;
 79B : 9B;
 79C : 9C;
 79D : 9D;
 79E : 9E;
 79F : 9F;
 7A0 : A0;
 7A1 : A1;
 7A2 : A2;
 7A3 : A3;
 7A4 : A4;
 7A5 : A5;
 7A6 : A6;
 7A7 : A7;
 7A8 : A8;
 7A9 : A9;
 7AA : AA;
 7AB : AB;
 7AC : AC;
 7AD : AD;
 7AE : AE;
 7AF : AF;
 7B0 : B0;
 7B1 : B1;
 7B2 : B2;
 7B3 : B3;
 7B4 : B4;
 7B5 : B5;
 7B6 : B6;
 7B7 : B7;
 7B8 : B8;
 7B9 : B9;
 7BA : BA;
 7BB : BB;
 7BC : BC;
 7BD : BD;
 7BE : BE;
 7BF : BF;
 7C0 : C0;
 7C1 : C1;
 7C2 : C2;
 7C3 : C3;
 7C4 : C4;
 7C5 : C5;
 7C6 : C6;
 7C7 : C7;
 7C8 : C8;
 7C9 : C9;
 7CA : CA;
 7CB : CB;
 7CC : CC;
 7CD : CD;
 7CE : CE;
 7CF : CF;
 7D0 : D0;
 7D1 : D1;
 7D2 : D2;
 7D3 : D3;
 7D4 : D4;
 7D5 : D5;
 7D6 : D6;
 7D7 : D7;
 7D8 : D8;
 7D9 : D9;
 7DA : DA;
 7DB : DB;
 7DC : DC;
 7DD : DD;
 7DE : DE;
 7DF : DF;
 7E0 : E0;
 7E1 : E1;
 7E2 : E2;
 7E3 : E3;
 7E4 : E4;
 7E5 : E5;
 7E6 : E6;
 7E7 : E7;
 7E8 : E8;
 7E9 : E9;
 7EA : EA;
 7EB : EB;
 7EC : EC;
 7ED : ED;
 7EE : EE;
 7EF : EF;
 7F0 : F0;
 7F1 : F1;
 7F2 : F2;
 7F3 : F3;
 7F4 : F4;
 7F5 : F5;
 7F6 : F6;
 7F7 : F7;
 7F8 : F8;
 7F9 : F9;
 7FA : FA;
 7FB : FB;
 7FC : FC;
 7FD : FD;
 7FE : FE;
 7FF : FF;
 800 : 00;
 801 : 01;
 802 : 02;
 803 : 03;
 804 : 04;
 805 : 05;
 806 : 06;
 807 : 07;
 808 : 08;
 809 : 09;
 80A : 0A;
 80B : 0B;
 80C : 0C;
 80D : 0D;
 80E : 0E;
 80F : 0F;
 810 : 10;
 811 : 11;
 812 : 12;
 813 : 13;
 814 : 14;
 815 : 15;
 816 : 16;
 817 : 17;
 818 : 18;
 819 : 19;
 81A : 1A;
 81B : 1B;
 81C : 1C;
 81D : 1D;
 81E : 1E;
 81F : 1F;
 820 : 20;
 821 : 21;
 822 : 22;
 823 : 23;
 824 : 24;
 825 : 25;
 826 : 26;
 827 : 27;
 828 : 28;
 829 : 29;
 82A : 2A;
 82B : 2B;
 82C : 2C;
 82D : 2D;
 82E : 2E;
 82F : 2F;
 830 : 30;
 831 : 31;
 832 : 32;
 833 : 33;
 834 : 34;
 835 : 35;
 836 : 36;
 837 : 37;
 838 : 38;
 839 : 39;
 83A : 3A;
 83B : 3B;
 83C : 3C;
 83D : 3D;
 83E : 3E;
 83F : 3F;
 840 : 40;
 841 : 41;
 842 : 42;
 843 : 43;
 844 : 44;
 845 : 45;
 846 : 46;
 847 : 47;
 848 : 48;
 849 : 49;
 84A : 4A;
 84B : 4B;
 84C : 4C;
 84D : 4D;
 84E : 4E;
 84F : 4F;
 850 : 50;
 851 : 51;
 852 : 52;
 853 : 53;
 854 : 54;
 855 : 55;
 856 : 56;
 857 : 57;
 858 : 58;
 859 : 59;
 85A : 5A;
 85B : 5B;
 85C : 5C;
 85D : 5D;
 85E : 5E;
 85F : 5F;
 860 : 60;
 861 : 61;
 862 : 62;
 863 : 63;
 864 : 64;
 865 : 65;
 866 : 66;
 867 : 67;
 868 : 68;
 869 : 69;
 86A : 6A;
 86B : 6B;
 86C : 6C;
 86D : 6D;
 86E : 6E;
 86F : 6F;
 870 : 70;
 871 : 71;
 872 : 72;
 873 : 73;
 874 : 74;
 875 : 75;
 876 : 76;
 877 : 77;
 878 : 78;
 879 : 79;
 87A : 7A;
 87B : 7B;
 87C : 7C;
 87D : 7D;
 87E : 7E;
 87F : 7F;
 880 : 80;
 881 : 81;
 882 : 82;
 883 : 83;
 884 : 84;
 885 : 85;
 886 : 86;
 887 : 87;
 888 : 88;
 889 : 89;
 88A : 8A;
 88B : 8B;
 88C : 8C;
 88D : 8D;
 88E : 8E;
 88F : 8F;
 890 : 90;
 891 : 91;
 892 : 92;
 893 : 93;
 894 : 94;
 895 : 95;
 896 : 96;
 897 : 97;
 898 : 98;
 899 : 99;
 89A : 9A;
 89B : 9B;
 89C : 9C;
 89D : 9D;
 89E : 9E;
 89F : 9F;
 8A0 : A0;
 8A1 : A1;
 8A2 : A2;
 8A3 : A3;
 8A4 : A4;
 8A5 : A5;
 8A6 : A6;
 8A7 : A7;
 8A8 : A8;
 8A9 : A9;
 8AA : AA;
 8AB : AB;
 8AC : AC;
 8AD : AD;
 8AE : AE;
 8AF : AF;
 8B0 : B0;
 8B1 : B1;
 8B2 : B2;
 8B3 : B3;
 8B4 : B4;
 8B5 : B5;
 8B6 : B6;
 8B7 : B7;
 8B8 : B8;
 8B9 : B9;
 8BA : BA;
 8BB : BB;
 8BC : BC;
 8BD : BD;
 8BE : BE;
 8BF : BF;
 8C0 : C0;
 8C1 : C1;
 8C2 : C2;
 8C3 : C3;
 8C4 : C4;
 8C5 : C5;
 8C6 : C6;
 8C7 : C7;
 8C8 : C8;
 8C9 : C9;
 8CA : CA;
 8CB : CB;
 8CC : CC;
 8CD : CD;
 8CE : CE;
 8CF : CF;
 8D0 : D0;
 8D1 : D1;
 8D2 : D2;
 8D3 : D3;
 8D4 : D4;
 8D5 : D5;
 8D6 : D6;
 8D7 : D7;
 8D8 : D8;
 8D9 : D9;
 8DA : DA;
 8DB : DB;
 8DC : DC;
 8DD : DD;
 8DE : DE;
 8DF : DF;
 8E0 : E0;
 8E1 : E1;
 8E2 : E2;
 8E3 : E3;
 8E4 : E4;
 8E5 : E5;
 8E6 : E6;
 8E7 : E7;
 8E8 : E8;
 8E9 : E9;
 8EA : EA;
 8EB : EB;
 8EC : EC;
 8ED : ED;
 8EE : EE;
 8EF : EF;
 8F0 : F0;
 8F1 : F1;
 8F2 : F2;
 8F3 : F3;
 8F4 : F4;
 8F5 : F5;
 8F6 : F6;
 8F7 : F7;
 8F8 : F8;
 8F9 : F9;
 8FA : FA;
 8FB : FB;
 8FC : FC;
 8FD : FD;
 8FE : FE;
 8FF : FF;
 900 : 00;
 901 : 01;
 902 : 02;
 903 : 03;
 904 : 04;
 905 : 05;
 906 : 06;
 907 : 07;
 908 : 08;
 909 : 09;
 90A : 0A;
 90B : 0B;
 90C : 0C;
 90D : 0D;
 90E : 0E;
 90F : 0F;
 910 : 10;
 911 : 11;
 912 : 12;
 913 : 13;
 914 : 14;
 915 : 15;
 916 : 16;
 917 : 17;
 918 : 18;
 919 : 19;
 91A : 1A;
 91B : 1B;
 91C : 1C;
 91D : 1D;
 91E : 1E;
 91F : 1F;
 920 : 20;
 921 : 21;
 922 : 22;
 923 : 23;
 924 : 24;
 925 : 25;
 926 : 26;
 927 : 27;
 928 : 28;
 929 : 29;
 92A : 2A;
 92B : 2B;
 92C : 2C;
 92D : 2D;
 92E : 2E;
 92F : 2F;
 930 : 30;
 931 : 31;
 932 : 32;
 933 : 33;
 934 : 34;
 935 : 35;
 936 : 36;
 937 : 37;
 938 : 38;
 939 : 39;
 93A : 3A;
 93B : 3B;
 93C : 3C;
 93D : 3D;
 93E : 3E;
 93F : 3F;
 940 : 40;
 941 : 41;
 942 : 42;
 943 : 43;
 944 : 44;
 945 : 45;
 946 : 46;
 947 : 47;
 948 : 48;
 949 : 49;
 94A : 4A;
 94B : 4B;
 94C : 4C;
 94D : 4D;
 94E : 4E;
 94F : 4F;
 950 : 50;
 951 : 51;
 952 : 52;
 953 : 53;
 954 : 54;
 955 : 55;
 956 : 56;
 957 : 57;
 958 : 58;
 959 : 59;
 95A : 5A;
 95B : 5B;
 95C : 5C;
 95D : 5D;
 95E : 5E;
 95F : 5F;
 960 : 60;
 961 : 61;
 962 : 62;
 963 : 63;
 964 : 64;
 965 : 65;
 966 : 66;
 967 : 67;
 968 : 68;
 969 : 69;
 96A : 6A;
 96B : 6B;
 96C : 6C;
 96D : 6D;
 96E : 6E;
 96F : 6F;
 970 : 70;
 971 : 71;
 972 : 72;
 973 : 73;
 974 : 74;
 975 : 75;
 976 : 76;
 977 : 77;
 978 : 78;
 979 : 79;
 97A : 7A;
 97B : 7B;
 97C : 7C;
 97D : 7D;
 97E : 7E;
 97F : 7F;
 980 : 80;
 981 : 81;
 982 : 82;
 983 : 83;
 984 : 84;
 985 : 85;
 986 : 86;
 987 : 87;
 988 : 88;
 989 : 89;
 98A : 8A;
 98B : 8B;
 98C : 8C;
 98D : 8D;
 98E : 8E;
 98F : 8F;
 990 : 90;
 991 : 91;
 992 : 92;
 993 : 93;
 994 : 94;
 995 : 95;
 996 : 96;
 997 : 97;
 998 : 98;
 999 : 99;
 99A : 9A;
 99B : 9B;
 99C : 9C;
 99D : 9D;
 99E : 9E;
 99F : 9F;
 9A0 : A0;
 9A1 : A1;
 9A2 : A2;
 9A3 : A3;
 9A4 : A4;
 9A5 : A5;
 9A6 : A6;
 9A7 : A7;
 9A8 : A8;
 9A9 : A9;
 9AA : AA;
 9AB : AB;
 9AC : AC;
 9AD : AD;
 9AE : AE;
 9AF : AF;
 9B0 : B0;
 9B1 : B1;
 9B2 : B2;
 9B3 : B3;
 9B4 : B4;
 9B5 : B5;
 9B6 : B6;
 9B7 : B7;
 9B8 : B8;
 9B9 : B9;
 9BA : BA;
 9BB : BB;
 9BC : BC;
 9BD : BD;
 9BE : BE;
 9BF : BF;
 9C0 : C0;
 9C1 : C1;
 9C2 : C2;
 9C3 : C3;
 9C4 : C4;
 9C5 : C5;
 9C6 : C6;
 9C7 : C7;
 9C8 : C8;
 9C9 : C9;
 9CA : CA;
 9CB : CB;
 9CC : CC;
 9CD : CD;
 9CE : CE;
 9CF : CF;
 9D0 : D0;
 9D1 : D1;
 9D2 : D2;
 9D3 : D3;
 9D4 : D4;
 9D5 : D5;
 9D6 : D6;
 9D7 : D7;
 9D8 : D8;
 9D9 : D9;
 9DA : DA;
 9DB : DB;
 9DC : DC;
 9DD : DD;
 9DE : DE;
 9DF : DF;
 9E0 : E0;
 9E1 : E1;
 9E2 : E2;
 9E3 : E3;
 9E4 : E4;
 9E5 : E5;
 9E6 : E6;
 9E7 : E7;
 9E8 : E8;
 9E9 : E9;
 9EA : EA;
 9EB : EB;
 9EC : EC;
 9ED : ED;
 9EE : EE;
 9EF : EF;
 9F0 : F0;
 9F1 : F1;
 9F2 : F2;
 9F3 : F3;
 9F4 : F4;
 9F5 : F5;
 9F6 : F6;
 9F7 : F7;
 9F8 : F8;
 9F9 : F9;
 9FA : FA;
 9FB : FB;
 9FC : FC;
 9FD : FD;
 9FE : FE;
 9FF : FF;
 A00 : 00;
 A01 : 01;
 A02 : 02;
 A03 : 03;
 A04 : 04;
 A05 : 05;
 A06 : 06;
 A07 : 07;
 A08 : 08;
 A09 : 09;
 A0A : 0A;
 A0B : 0B;
 A0C : 0C;
 A0D : 0D;
 A0E : 0E;
 A0F : 0F;
 A10 : 10;
 A11 : 11;
 A12 : 12;
 A13 : 13;
 A14 : 14;
 A15 : 15;
 A16 : 16;
 A17 : 17;
 A18 : 18;
 A19 : 19;
 A1A : 1A;
 A1B : 1B;
 A1C : 1C;
 A1D : 1D;
 A1E : 1E;
 A1F : 1F;
 A20 : 20;
 A21 : 21;
 A22 : 22;
 A23 : 23;
 A24 : 24;
 A25 : 25;
 A26 : 26;
 A27 : 27;
 A28 : 28;
 A29 : 29;
 A2A : 2A;
 A2B : 2B;
 A2C : 2C;
 A2D : 2D;
 A2E : 2E;
 A2F : 2F;
 A30 : 30;
 A31 : 31;
 A32 : 32;
 A33 : 33;
 A34 : 34;
 A35 : 35;
 A36 : 36;
 A37 : 37;
 A38 : 38;
 A39 : 39;
 A3A : 3A;
 A3B : 3B;
 A3C : 3C;
 A3D : 3D;
 A3E : 3E;
 A3F : 3F;
 A40 : 40;
 A41 : 41;
 A42 : 42;
 A43 : 43;
 A44 : 44;
 A45 : 45;
 A46 : 46;
 A47 : 47;
 A48 : 48;
 A49 : 49;
 A4A : 4A;
 A4B : 4B;
 A4C : 4C;
 A4D : 4D;
 A4E : 4E;
 A4F : 4F;
 A50 : 50;
 A51 : 51;
 A52 : 52;
 A53 : 53;
 A54 : 54;
 A55 : 55;
 A56 : 56;
 A57 : 57;
 A58 : 58;
 A59 : 59;
 A5A : 5A;
 A5B : 5B;
 A5C : 5C;
 A5D : 5D;
 A5E : 5E;
 A5F : 5F;
 A60 : 60;
 A61 : 61;
 A62 : 62;
 A63 : 63;
 A64 : 64;
 A65 : 65;
 A66 : 66;
 A67 : 67;
 A68 : 68;
 A69 : 69;
 A6A : 6A;
 A6B : 6B;
 A6C : 6C;
 A6D : 6D;
 A6E : 6E;
 A6F : 6F;
 A70 : 70;
 A71 : 71;
 A72 : 72;
 A73 : 73;
 A74 : 74;
 A75 : 75;
 A76 : 76;
 A77 : 77;
 A78 : 78;
 A79 : 79;
 A7A : 7A;
 A7B : 7B;
 A7C : 7C;
 A7D : 7D;
 A7E : 7E;
 A7F : 7F;
 A80 : 80;
 A81 : 81;
 A82 : 82;
 A83 : 83;
 A84 : 84;
 A85 : 85;
 A86 : 86;
 A87 : 87;
 A88 : 88;
 A89 : 89;
 A8A : 8A;
 A8B : 8B;
 A8C : 8C;
 A8D : 8D;
 A8E : 8E;
 A8F : 8F;
 A90 : 90;
 A91 : 91;
 A92 : 92;
 A93 : 93;
 A94 : 94;
 A95 : 95;
 A96 : 96;
 A97 : 97;
 A98 : 98;
 A99 : 99;
 A9A : 9A;
 A9B : 9B;
 A9C : 9C;
 A9D : 9D;
 A9E : 9E;
 A9F : 9F;
 AA0 : A0;
 AA1 : A1;
 AA2 : A2;
 AA3 : A3;
 AA4 : A4;
 AA5 : A5;
 AA6 : A6;
 AA7 : A7;
 AA8 : A8;
 AA9 : A9;
 AAA : AA;
 AAB : AB;
 AAC : AC;
 AAD : AD;
 AAE : AE;
 AAF : AF;
 AB0 : B0;
 AB1 : B1;
 AB2 : B2;
 AB3 : B3;
 AB4 : B4;
 AB5 : B5;
 AB6 : B6;
 AB7 : B7;
 AB8 : B8;
 AB9 : B9;
 ABA : BA;
 ABB : BB;
 ABC : BC;
 ABD : BD;
 ABE : BE;
 ABF : BF;
 AC0 : C0;
 AC1 : C1;
 AC2 : C2;
 AC3 : C3;
 AC4 : C4;
 AC5 : C5;
 AC6 : C6;
 AC7 : C7;
 AC8 : C8;
 AC9 : C9;
 ACA : CA;
 ACB : CB;
 ACC : CC;
 ACD : CD;
 ACE : CE;
 ACF : CF;
 AD0 : D0;
 AD1 : D1;
 AD2 : D2;
 AD3 : D3;
 AD4 : D4;
 AD5 : D5;
 AD6 : D6;
 AD7 : D7;
 AD8 : D8;
 AD9 : D9;
 ADA : DA;
 ADB : DB;
 ADC : DC;
 ADD : DD;
 ADE : DE;
 ADF : DF;
 AE0 : E0;
 AE1 : E1;
 AE2 : E2;
 AE3 : E3;
 AE4 : E4;
 AE5 : E5;
 AE6 : E6;
 AE7 : E7;
 AE8 : E8;
 AE9 : E9;
 AEA : EA;
 AEB : EB;
 AEC : EC;
 AED : ED;
 AEE : EE;
 AEF : EF;
 AF0 : F0;
 AF1 : F1;
 AF2 : F2;
 AF3 : F3;
 AF4 : F4;
 AF5 : F5;
 AF6 : F6;
 AF7 : F7;
 AF8 : F8;
 AF9 : F9;
 AFA : FA;
 AFB : FB;
 AFC : FC;
 AFD : FD;
 AFE : FE;
 AFF : FF;
 B00 : 00;
 B01 : 01;
 B02 : 02;
 B03 : 03;
 B04 : 04;
 B05 : 05;
 B06 : 06;
 B07 : 07;
 B08 : 08;
 B09 : 09;
 B0A : 0A;
 B0B : 0B;
 B0C : 0C;
 B0D : 0D;
 B0E : 0E;
 B0F : 0F;
 B10 : 10;
 B11 : 11;
 B12 : 12;
 B13 : 13;
 B14 : 14;
 B15 : 15;
 B16 : 16;
 B17 : 17;
 B18 : 18;
 B19 : 19;
 B1A : 1A;
 B1B : 1B;
 B1C : 1C;
 B1D : 1D;
 B1E : 1E;
 B1F : 1F;
 B20 : 20;
 B21 : 21;
 B22 : 22;
 B23 : 23;
 B24 : 24;
 B25 : 25;
 B26 : 26;
 B27 : 27;
 B28 : 28;
 B29 : 29;
 B2A : 2A;
 B2B : 2B;
 B2C : 2C;
 B2D : 2D;
 B2E : 2E;
 B2F : 2F;
 B30 : 30;
 B31 : 31;
 B32 : 32;
 B33 : 33;
 B34 : 34;
 B35 : 35;
 B36 : 36;
 B37 : 37;
 B38 : 38;
 B39 : 39;
 B3A : 3A;
 B3B : 3B;
 B3C : 3C;
 B3D : 3D;
 B3E : 3E;
 B3F : 3F;
 B40 : 40;
 B41 : 41;
 B42 : 42;
 B43 : 43;
 B44 : 44;
 B45 : 45;
 B46 : 46;
 B47 : 47;
 B48 : 48;
 B49 : 49;
 B4A : 4A;
 B4B : 4B;
 B4C : 4C;
 B4D : 4D;
 B4E : 4E;
 B4F : 4F;
 B50 : 50;
 B51 : 51;
 B52 : 52;
 B53 : 53;
 B54 : 54;
 B55 : 55;
 B56 : 56;
 B57 : 57;
 B58 : 58;
 B59 : 59;
 B5A : 5A;
 B5B : 5B;
 B5C : 5C;
 B5D : 5D;
 B5E : 5E;
 B5F : 5F;
 B60 : 60;
 B61 : 61;
 B62 : 62;
 B63 : 63;
 B64 : 64;
 B65 : 65;
 B66 : 66;
 B67 : 67;
 B68 : 68;
 B69 : 69;
 B6A : 6A;
 B6B : 6B;
 B6C : 6C;
 B6D : 6D;
 B6E : 6E;
 B6F : 6F;
 B70 : 70;
 B71 : 71;
 B72 : 72;
 B73 : 73;
 B74 : 74;
 B75 : 75;
 B76 : 76;
 B77 : 77;
 B78 : 78;
 B79 : 79;
 B7A : 7A;
 B7B : 7B;
 B7C : 7C;
 B7D : 7D;
 B7E : 7E;
 B7F : 7F;
 B80 : 80;
 B81 : 81;
 B82 : 82;
 B83 : 83;
 B84 : 84;
 B85 : 85;
 B86 : 86;
 B87 : 87;
 B88 : 88;
 B89 : 89;
 B8A : 8A;
 B8B : 8B;
 B8C : 8C;
 B8D : 8D;
 B8E : 8E;
 B8F : 8F;
 B90 : 90;
 B91 : 91;
 B92 : 92;
 B93 : 93;
 B94 : 94;
 B95 : 95;
 B96 : 96;
 B97 : 97;
 B98 : 98;
 B99 : 99;
 B9A : 9A;
 B9B : 9B;
 B9C : 9C;
 B9D : 9D;
 B9E : 9E;
 B9F : 9F;
 BA0 : A0;
 BA1 : A1;
 BA2 : A2;
 BA3 : A3;
 BA4 : A4;
 BA5 : A5;
 BA6 : A6;
 BA7 : A7;
 BA8 : A8;
 BA9 : A9;
 BAA : AA;
 BAB : AB;
 BAC : AC;
 BAD : AD;
 BAE : AE;
 BAF : AF;
 BB0 : B0;
 BB1 : B1;
 BB2 : B2;
 BB3 : B3;
 BB4 : B4;
 BB5 : B5;
 BB6 : B6;
 BB7 : B7;
 BB8 : B8;
 BB9 : B9;
 BBA : BA;
 BBB : BB;
 BBC : BC;
 BBD : BD;
 BBE : BE;
 BBF : BF;
 BC0 : C0;
 BC1 : C1;
 BC2 : C2;
 BC3 : C3;
 BC4 : C4;
 BC5 : C5;
 BC6 : C6;
 BC7 : C7;
 BC8 : C8;
 BC9 : C9;
 BCA : CA;
 BCB : CB;
 BCC : CC;
 BCD : CD;
 BCE : CE;
 BCF : CF;
 BD0 : D0;
 BD1 : D1;
 BD2 : D2;
 BD3 : D3;
 BD4 : D4;
 BD5 : D5;
 BD6 : D6;
 BD7 : D7;
 BD8 : D8;
 BD9 : D9;
 BDA : DA;
 BDB : DB;
 BDC : DC;
 BDD : DD;
 BDE : DE;
 BDF : DF;
 BE0 : E0;
 BE1 : E1;
 BE2 : E2;
 BE3 : E3;
 BE4 : E4;
 BE5 : E5;
 BE6 : E6;
 BE7 : E7;
 BE8 : E8;
 BE9 : E9;
 BEA : EA;
 BEB : EB;
 BEC : EC;
 BED : ED;
 BEE : EE;
 BEF : EF;
 BF0 : F0;
 BF1 : F1;
 BF2 : F2;
 BF3 : F3;
 BF4 : F4;
 BF5 : F5;
 BF6 : F6;
 BF7 : F7;
 BF8 : F8;
 BF9 : F9;
 BFA : FA;
 BFB : FB;
 BFC : FC;
 BFD : FD;
 BFE : FE;
 BFF : FF;
 C00 : 00;
 C01 : 01;
 C02 : 02;
 C03 : 03;
 C04 : 04;
 C05 : 05;
 C06 : 06;
 C07 : 07;
 C08 : 08;
 C09 : 09;
 C0A : 0A;
 C0B : 0B;
 C0C : 0C;
 C0D : 0D;
 C0E : 0E;
 C0F : 0F;
 C10 : 10;
 C11 : 11;
 C12 : 12;
 C13 : 13;
 C14 : 14;
 C15 : 15;
 C16 : 16;
 C17 : 17;
 C18 : 18;
 C19 : 19;
 C1A : 1A;
 C1B : 1B;
 C1C : 1C;
 C1D : 1D;
 C1E : 1E;
 C1F : 1F;
 C20 : 20;
 C21 : 21;
 C22 : 22;
 C23 : 23;
 C24 : 24;
 C25 : 25;
 C26 : 26;
 C27 : 27;
 C28 : 28;
 C29 : 29;
 C2A : 2A;
 C2B : 2B;
 C2C : 2C;
 C2D : 2D;
 C2E : 2E;
 C2F : 2F;
 C30 : 30;
 C31 : 31;
 C32 : 32;
 C33 : 33;
 C34 : 34;
 C35 : 35;
 C36 : 36;
 C37 : 37;
 C38 : 38;
 C39 : 39;
 C3A : 3A;
 C3B : 3B;
 C3C : 3C;
 C3D : 3D;
 C3E : 3E;
 C3F : 3F;
 C40 : 40;
 C41 : 41;
 C42 : 42;
 C43 : 43;
 C44 : 44;
 C45 : 45;
 C46 : 46;
 C47 : 47;
 C48 : 48;
 C49 : 49;
 C4A : 4A;
 C4B : 4B;
 C4C : 4C;
 C4D : 4D;
 C4E : 4E;
 C4F : 4F;
 C50 : 50;
 C51 : 51;
 C52 : 52;
 C53 : 53;
 C54 : 54;
 C55 : 55;
 C56 : 56;
 C57 : 57;
 C58 : 58;
 C59 : 59;
 C5A : 5A;
 C5B : 5B;
 C5C : 5C;
 C5D : 5D;
 C5E : 5E;
 C5F : 5F;
 C60 : 60;
 C61 : 61;
 C62 : 62;
 C63 : 63;
 C64 : 64;
 C65 : 65;
 C66 : 66;
 C67 : 67;
 C68 : 68;
 C69 : 69;
 C6A : 6A;
 C6B : 6B;
 C6C : 6C;
 C6D : 6D;
 C6E : 6E;
 C6F : 6F;
 C70 : 70;
 C71 : 71;
 C72 : 72;
 C73 : 73;
 C74 : 74;
 C75 : 75;
 C76 : 76;
 C77 : 77;
 C78 : 78;
 C79 : 79;
 C7A : 7A;
 C7B : 7B;
 C7C : 7C;
 C7D : 7D;
 C7E : 7E;
 C7F : 7F;
 C80 : 80;
 C81 : 81;
 C82 : 82;
 C83 : 83;
 C84 : 84;
 C85 : 85;
 C86 : 86;
 C87 : 87;
 C88 : 88;
 C89 : 89;
 C8A : 8A;
 C8B : 8B;
 C8C : 8C;
 C8D : 8D;
 C8E : 8E;
 C8F : 8F;
 C90 : 90;
 C91 : 91;
 C92 : 92;
 C93 : 93;
 C94 : 94;
 C95 : 95;
 C96 : 96;
 C97 : 97;
 C98 : 98;
 C99 : 99;
 C9A : 9A;
 C9B : 9B;
 C9C : 9C;
 C9D : 9D;
 C9E : 9E;
 C9F : 9F;
 CA0 : A0;
 CA1 : A1;
 CA2 : A2;
 CA3 : A3;
 CA4 : A4;
 CA5 : A5;
 CA6 : A6;
 CA7 : A7;
 CA8 : A8;
 CA9 : A9;
 CAA : AA;
 CAB : AB;
 CAC : AC;
 CAD : AD;
 CAE : AE;
 CAF : AF;
 CB0 : B0;
 CB1 : B1;
 CB2 : B2;
 CB3 : B3;
 CB4 : B4;
 CB5 : B5;
 CB6 : B6;
 CB7 : B7;
 CB8 : B8;
 CB9 : B9;
 CBA : BA;
 CBB : BB;
 CBC : BC;
 CBD : BD;
 CBE : BE;
 CBF : BF;
 CC0 : C0;
 CC1 : C1;
 CC2 : C2;
 CC3 : C3;
 CC4 : C4;
 CC5 : C5;
 CC6 : C6;
 CC7 : C7;
 CC8 : C8;
 CC9 : C9;
 CCA : CA;
 CCB : CB;
 CCC : CC;
 CCD : CD;
 CCE : CE;
 CCF : CF;
 CD0 : D0;
 CD1 : D1;
 CD2 : D2;
 CD3 : D3;
 CD4 : D4;
 CD5 : D5;
 CD6 : D6;
 CD7 : D7;
 CD8 : D8;
 CD9 : D9;
 CDA : DA;
 CDB : DB;
 CDC : DC;
 CDD : DD;
 CDE : DE;
 CDF : DF;
 CE0 : E0;
 CE1 : E1;
 CE2 : E2;
 CE3 : E3;
 CE4 : E4;
 CE5 : E5;
 CE6 : E6;
 CE7 : E7;
 CE8 : E8;
 CE9 : E9;
 CEA : EA;
 CEB : EB;
 CEC : EC;
 CED : ED;
 CEE : EE;
 CEF : EF;
 CF0 : F0;
 CF1 : F1;
 CF2 : F2;
 CF3 : F3;
 CF4 : F4;
 CF5 : F5;
 CF6 : F6;
 CF7 : F7;
 CF8 : F8;
 CF9 : F9;
 CFA : FA;
 CFB : FB;
 CFC : FC;
 CFD : FD;
 CFE : FE;
 CFF : FF;
 D00 : 00;
 D01 : 01;
 D02 : 02;
 D03 : 03;
 D04 : 04;
 D05 : 05;
 D06 : 06;
 D07 : 07;
 D08 : 08;
 D09 : 09;
 D0A : 0A;
 D0B : 0B;
 D0C : 0C;
 D0D : 0D;
 D0E : 0E;
 D0F : 0F;
 D10 : 10;
 D11 : 11;
 D12 : 12;
 D13 : 13;
 D14 : 14;
 D15 : 15;
 D16 : 16;
 D17 : 17;
 D18 : 18;
 D19 : 19;
 D1A : 1A;
 D1B : 1B;
 D1C : 1C;
 D1D : 1D;
 D1E : 1E;
 D1F : 1F;
 D20 : 20;
 D21 : 21;
 D22 : 22;
 D23 : 23;
 D24 : 24;
 D25 : 25;
 D26 : 26;
 D27 : 27;
 D28 : 28;
 D29 : 29;
 D2A : 2A;
 D2B : 2B;
 D2C : 2C;
 D2D : 2D;
 D2E : 2E;
 D2F : 2F;
 D30 : 30;
 D31 : 31;
 D32 : 32;
 D33 : 33;
 D34 : 34;
 D35 : 35;
 D36 : 36;
 D37 : 37;
 D38 : 38;
 D39 : 39;
 D3A : 3A;
 D3B : 3B;
 D3C : 3C;
 D3D : 3D;
 D3E : 3E;
 D3F : 3F;
 D40 : 40;
 D41 : 41;
 D42 : 42;
 D43 : 43;
 D44 : 44;
 D45 : 45;
 D46 : 46;
 D47 : 47;
 D48 : 48;
 D49 : 49;
 D4A : 4A;
 D4B : 4B;
 D4C : 4C;
 D4D : 4D;
 D4E : 4E;
 D4F : 4F;
 D50 : 50;
 D51 : 51;
 D52 : 52;
 D53 : 53;
 D54 : 54;
 D55 : 55;
 D56 : 56;
 D57 : 57;
 D58 : 58;
 D59 : 59;
 D5A : 5A;
 D5B : 5B;
 D5C : 5C;
 D5D : 5D;
 D5E : 5E;
 D5F : 5F;
 D60 : 60;
 D61 : 61;
 D62 : 62;
 D63 : 63;
 D64 : 64;
 D65 : 65;
 D66 : 66;
 D67 : 67;
 D68 : 68;
 D69 : 69;
 D6A : 6A;
 D6B : 6B;
 D6C : 6C;
 D6D : 6D;
 D6E : 6E;
 D6F : 6F;
 D70 : 70;
 D71 : 71;
 D72 : 72;
 D73 : 73;
 D74 : 74;
 D75 : 75;
 D76 : 76;
 D77 : 77;
 D78 : 78;
 D79 : 79;
 D7A : 7A;
 D7B : 7B;
 D7C : 7C;
 D7D : 7D;
 D7E : 7E;
 D7F : 7F;
 D80 : 80;
 D81 : 81;
 D82 : 82;
 D83 : 83;
 D84 : 84;
 D85 : 85;
 D86 : 86;
 D87 : 87;
 D88 : 88;
 D89 : 89;
 D8A : 8A;
 D8B : 8B;
 D8C : 8C;
 D8D : 8D;
 D8E : 8E;
 D8F : 8F;
 D90 : 90;
 D91 : 91;
 D92 : 92;
 D93 : 93;
 D94 : 94;
 D95 : 95;
 D96 : 96;
 D97 : 97;
 D98 : 98;
 D99 : 99;
 D9A : 9A;
 D9B : 9B;
 D9C : 9C;
 D9D : 9D;
 D9E : 9E;
 D9F : 9F;
 DA0 : A0;
 DA1 : A1;
 DA2 : A2;
 DA3 : A3;
 DA4 : A4;
 DA5 : A5;
 DA6 : A6;
 DA7 : A7;
 DA8 : A8;
 DA9 : A9;
 DAA : AA;
 DAB : AB;
 DAC : AC;
 DAD : AD;
 DAE : AE;
 DAF : AF;
 DB0 : B0;
 DB1 : B1;
 DB2 : B2;
 DB3 : B3;
 DB4 : B4;
 DB5 : B5;
 DB6 : B6;
 DB7 : B7;
 DB8 : B8;
 DB9 : B9;
 DBA : BA;
 DBB : BB;
 DBC : BC;
 DBD : BD;
 DBE : BE;
 DBF : BF;
 DC0 : C0;
 DC1 : C1;
 DC2 : C2;
 DC3 : C3;
 DC4 : C4;
 DC5 : C5;
 DC6 : C6;
 DC7 : C7;
 DC8 : C8;
 DC9 : C9;
 DCA : CA;
 DCB : CB;
 DCC : CC;
 DCD : CD;
 DCE : CE;
 DCF : CF;
 DD0 : D0;
 DD1 : D1;
 DD2 : D2;
 DD3 : D3;
 DD4 : D4;
 DD5 : D5;
 DD6 : D6;
 DD7 : D7;
 DD8 : D8;
 DD9 : D9;
 DDA : DA;
 DDB : DB;
 DDC : DC;
 DDD : DD;
 DDE : DE;
 DDF : DF;
 DE0 : E0;
 DE1 : E1;
 DE2 : E2;
 DE3 : E3;
 DE4 : E4;
 DE5 : E5;
 DE6 : E6;
 DE7 : E7;
 DE8 : E8;
 DE9 : E9;
 DEA : EA;
 DEB : EB;
 DEC : EC;
 DED : ED;
 DEE : EE;
 DEF : EF;
 DF0 : F0;
 DF1 : F1;
 DF2 : F2;
 DF3 : F3;
 DF4 : F4;
 DF5 : F5;
 DF6 : F6;
 DF7 : F7;
 DF8 : F8;
 DF9 : F9;
 DFA : FA;
 DFB : FB;
 DFC : FC;
 DFD : FD;
 DFE : FE;
 DFF : FF;
 E00 : 00;
 E01 : 01;
 E02 : 02;
 E03 : 03;
 E04 : 04;
 E05 : 05;
 E06 : 06;
 E07 : 07;
 E08 : 08;
 E09 : 09;
 E0A : 0A;
 E0B : 0B;
 E0C : 0C;
 E0D : 0D;
 E0E : 0E;
 E0F : 0F;
 E10 : 10;
 E11 : 11;
 E12 : 12;
 E13 : 13;
 E14 : 14;
 E15 : 15;
 E16 : 16;
 E17 : 17;
 E18 : 18;
 E19 : 19;
 E1A : 1A;
 E1B : 1B;
 E1C : 1C;
 E1D : 1D;
 E1E : 1E;
 E1F : 1F;
 E20 : 20;
 E21 : 21;
 E22 : 22;
 E23 : 23;
 E24 : 24;
 E25 : 25;
 E26 : 26;
 E27 : 27;
 E28 : 28;
 E29 : 29;
 E2A : 2A;
 E2B : 2B;
 E2C : 2C;
 E2D : 2D;
 E2E : 2E;
 E2F : 2F;
 E30 : 30;
 E31 : 31;
 E32 : 32;
 E33 : 33;
 E34 : 34;
 E35 : 35;
 E36 : 36;
 E37 : 37;
 E38 : 38;
 E39 : 39;
 E3A : 3A;
 E3B : 3B;
 E3C : 3C;
 E3D : 3D;
 E3E : 3E;
 E3F : 3F;
 E40 : 40;
 E41 : 41;
 E42 : 42;
 E43 : 43;
 E44 : 44;
 E45 : 45;
 E46 : 46;
 E47 : 47;
 E48 : 48;
 E49 : 49;
 E4A : 4A;
 E4B : 4B;
 E4C : 4C;
 E4D : 4D;
 E4E : 4E;
 E4F : 4F;
 E50 : 50;
 E51 : 51;
 E52 : 52;
 E53 : 53;
 E54 : 54;
 E55 : 55;
 E56 : 56;
 E57 : 57;
 E58 : 58;
 E59 : 59;
 E5A : 5A;
 E5B : 5B;
 E5C : 5C;
 E5D : 5D;
 E5E : 5E;
 E5F : 5F;
 E60 : 60;
 E61 : 61;
 E62 : 62;
 E63 : 63;
 E64 : 64;
 E65 : 65;
 E66 : 66;
 E67 : 67;
 E68 : 68;
 E69 : 69;
 E6A : 6A;
 E6B : 6B;
 E6C : 6C;
 E6D : 6D;
 E6E : 6E;
 E6F : 6F;
 E70 : 70;
 E71 : 71;
 E72 : 72;
 E73 : 73;
 E74 : 74;
 E75 : 75;
 E76 : 76;
 E77 : 77;
 E78 : 78;
 E79 : 79;
 E7A : 7A;
 E7B : 7B;
 E7C : 7C;
 E7D : 7D;
 E7E : 7E;
 E7F : 7F;
 E80 : 80;
 E81 : 81;
 E82 : 82;
 E83 : 83;
 E84 : 84;
 E85 : 85;
 E86 : 86;
 E87 : 87;
 E88 : 88;
 E89 : 89;
 E8A : 8A;
 E8B : 8B;
 E8C : 8C;
 E8D : 8D;
 E8E : 8E;
 E8F : 8F;
 E90 : 90;
 E91 : 91;
 E92 : 92;
 E93 : 93;
 E94 : 94;
 E95 : 95;
 E96 : 96;
 E97 : 97;
 E98 : 98;
 E99 : 99;
 E9A : 9A;
 E9B : 9B;
 E9C : 9C;
 E9D : 9D;
 E9E : 9E;
 E9F : 9F;
 EA0 : A0;
 EA1 : A1;
 EA2 : A2;
 EA3 : A3;
 EA4 : A4;
 EA5 : A5;
 EA6 : A6;
 EA7 : A7;
 EA8 : A8;
 EA9 : A9;
 EAA : AA;
 EAB : AB;
 EAC : AC;
 EAD : AD;
 EAE : AE;
 EAF : AF;
 EB0 : B0;
 EB1 : B1;
 EB2 : B2;
 EB3 : B3;
 EB4 : B4;
 EB5 : B5;
 EB6 : B6;
 EB7 : B7;
 EB8 : B8;
 EB9 : B9;
 EBA : BA;
 EBB : BB;
 EBC : BC;
 EBD : BD;
 EBE : BE;
 EBF : BF;
 EC0 : C0;
 EC1 : C1;
 EC2 : C2;
 EC3 : C3;
 EC4 : C4;
 EC5 : C5;
 EC6 : C6;
 EC7 : C7;
 EC8 : C8;
 EC9 : C9;
 ECA : CA;
 ECB : CB;
 ECC : CC;
 ECD : CD;
 ECE : CE;
 ECF : CF;
 ED0 : D0;
 ED1 : D1;
 ED2 : D2;
 ED3 : D3;
 ED4 : D4;
 ED5 : D5;
 ED6 : D6;
 ED7 : D7;
 ED8 : D8;
 ED9 : D9;
 EDA : DA;
 EDB : DB;
 EDC : DC;
 EDD : DD;
 EDE : DE;
 EDF : DF;
 EE0 : E0;
 EE1 : E1;
 EE2 : E2;
 EE3 : E3;
 EE4 : E4;
 EE5 : E5;
 EE6 : E6;
 EE7 : E7;
 EE8 : E8;
 EE9 : E9;
 EEA : EA;
 EEB : EB;
 EEC : EC;
 EED : ED;
 EEE : EE;
 EEF : EF;
 EF0 : F0;
 EF1 : F1;
 EF2 : F2;
 EF3 : F3;
 EF4 : F4;
 EF5 : F5;
 EF6 : F6;
 EF7 : F7;
 EF8 : F8;
 EF9 : F9;
 EFA : FA;
 EFB : FB;
 EFC : FC;
 EFD : FD;
 EFE : FE;
 EFF : FF;
 F00 : 00;
 F01 : 01;
 F02 : 02;
 F03 : 03;
 F04 : 04;
 F05 : 05;
 F06 : 06;
 F07 : 07;
 F08 : 08;
 F09 : 09;
 F0A : 0A;
 F0B : 0B;
 F0C : 0C;
 F0D : 0D;
 F0E : 0E;
 F0F : 0F;
 F10 : 10;
 F11 : 11;
 F12 : 12;
 F13 : 13;
 F14 : 14;
 F15 : 15;
 F16 : 16;
 F17 : 17;
 F18 : 18;
 F19 : 19;
 F1A : 1A;
 F1B : 1B;
 F1C : 1C;
 F1D : 1D;
 F1E : 1E;
 F1F : 1F;
 F20 : 20;
 F21 : 21;
 F22 : 22;
 F23 : 23;
 F24 : 24;
 F25 : 25;
 F26 : 26;
 F27 : 27;
 F28 : 28;
 F29 : 29;
 F2A : 2A;
 F2B : 2B;
 F2C : 2C;
 F2D : 2D;
 F2E : 2E;
 F2F : 2F;
 F30 : 30;
 F31 : 31;
 F32 : 32;
 F33 : 33;
 F34 : 34;
 F35 : 35;
 F36 : 36;
 F37 : 37;
 F38 : 38;
 F39 : 39;
 F3A : 3A;
 F3B : 3B;
 F3C : 3C;
 F3D : 3D;
 F3E : 3E;
 F3F : 3F;
 F40 : 40;
 F41 : 41;
 F42 : 42;
 F43 : 43;
 F44 : 44;
 F45 : 45;
 F46 : 46;
 F47 : 47;
 F48 : 48;
 F49 : 49;
 F4A : 4A;
 F4B : 4B;
 F4C : 4C;
 F4D : 4D;
 F4E : 4E;
 F4F : 4F;
 F50 : 50;
 F51 : 51;
 F52 : 52;
 F53 : 53;
 F54 : 54;
 F55 : 55;
 F56 : 56;
 F57 : 57;
 F58 : 58;
 F59 : 59;
 F5A : 5A;
 F5B : 5B;
 F5C : 5C;
 F5D : 5D;
 F5E : 5E;
 F5F : 5F;
 F60 : 60;
 F61 : 61;
 F62 : 62;
 F63 : 63;
 F64 : 64;
 F65 : 65;
 F66 : 66;
 F67 : 67;
 F68 : 68;
 F69 : 69;
 F6A : 6A;
 F6B : 6B;
 F6C : 6C;
 F6D : 6D;
 F6E : 6E;
 F6F : 6F;
 F70 : 70;
 F71 : 71;
 F72 : 72;
 F73 : 73;
 F74 : 74;
 F75 : 75;
 F76 : 76;
 F77 : 77;
 F78 : 78;
 F79 : 79;
 F7A : 7A;
 F7B : 7B;
 F7C : 7C;
 F7D : 7D;
 F7E : 7E;
 F7F : 7F;
 F80 : 80;
 F81 : 81;
 F82 : 82;
 F83 : 83;
 F84 : 84;
 F85 : 85;
 F86 : 86;
 F87 : 87;
 F88 : 88;
 F89 : 89;
 F8A : 8A;
 F8B : 8B;
 F8C : 8C;
 F8D : 8D;
 F8E : 8E;
 F8F : 8F;
 F90 : 90;
 F91 : 91;
 F92 : 92;
 F93 : 93;
 F94 : 94;
 F95 : 95;
 F96 : 96;
 F97 : 97;
 F98 : 98;
 F99 : 99;
 F9A : 9A;
 F9B : 9B;
 F9C : 9C;
 F9D : 9D;
 F9E : 9E;
 F9F : 9F;
 FA0 : A0;
 FA1 : A1;
 FA2 : A2;
 FA3 : A3;
 FA4 : A4;
 FA5 : A5;
 FA6 : A6;
 FA7 : A7;
 FA8 : A8;
 FA9 : A9;
 FAA : AA;
 FAB : AB;
 FAC : AC;
 FAD : AD;
 FAE : AE;
 FAF : AF;
 FB0 : B0;
 FB1 : B1;
 FB2 : B2;
 FB3 : B3;
 FB4 : B4;
 FB5 : B5;
 FB6 : B6;
 FB7 : B7;
 FB8 : B8;
 FB9 : B9;
 FBA : BA;
 FBB : BB;
 FBC : BC;
 FBD : BD;
 FBE : BE;
 FBF : BF;
 FC0 : C0;
 FC1 : C1;
 FC2 : C2;
 FC3 : C3;
 FC4 : C4;
 FC5 : C5;
 FC6 : C6;
 FC7 : C7;
 FC8 : C8;
 FC9 : C9;
 FCA : CA;
 FCB : CB;
 FCC : CC;
 FCD : CD;
 FCE : CE;
 FCF : CF;
 FD0 : D0;
 FD1 : D1;
 FD2 : D2;
 FD3 : D3;
 FD4 : D4;
 FD5 : D5;
 FD6 : D6;
 FD7 : D7;
 FD8 : D8;
 FD9 : D9;
 FDA : DA;
 FDB : DB;
 FDC : DC;
 FDD : DD;
 FDE : DE;
 FDF : DF;
 FE0 : E0;
 FE1 : E1;
 FE2 : E2;
 FE3 : E3;
 FE4 : E4;
 FE5 : E5;
 FE6 : E6;
 FE7 : E7;
 FE8 : E8;
 FE9 : E9;
 FEA : EA;
 FEB : EB;
 FEC : EC;
 FED : ED;
 FEE : EE;
 FEF : EF;
 FF0 : F0;
 FF1 : F1;
 FF2 : F2;
 FF3 : F3;
 FF4 : F4;
 FF5 : F5;
 FF6 : F6;
 FF7 : F7;
 FF8 : F8;
 FF9 : F9;
 FFA : FA;
 FFB : FB;
 FFC : FC;
 FFD : FD;
 FFE : FE;
 FFF : FF;
 1000 : 00;
 1001 : 01;
 1002 : 02;
 1003 : 03;
 1004 : 04;
 1005 : 05;
 1006 : 06;
 1007 : 07;
 1008 : 08;
 1009 : 09;
 100A : 0A;
 100B : 0B;
 100C : 0C;
 100D : 0D;
 100E : 0E;
 100F : 0F;
 1010 : 10;
 1011 : 11;
 1012 : 12;
 1013 : 13;
 1014 : 14;
 1015 : 15;
 1016 : 16;
 1017 : 17;
 1018 : 18;
 1019 : 19;
 101A : 1A;
 101B : 1B;
 101C : 1C;
 101D : 1D;
 101E : 1E;
 101F : 1F;
 1020 : 20;
 1021 : 21;
 1022 : 22;
 1023 : 23;
 1024 : 24;
 1025 : 25;
 1026 : 26;
 1027 : 27;
 1028 : 28;
 1029 : 29;
 102A : 2A;
 102B : 2B;
 102C : 2C;
 102D : 2D;
 102E : 2E;
 102F : 2F;
 1030 : 30;
 1031 : 31;
 1032 : 32;
 1033 : 33;
 1034 : 34;
 1035 : 35;
 1036 : 36;
 1037 : 37;
 1038 : 38;
 1039 : 39;
 103A : 3A;
 103B : 3B;
 103C : 3C;
 103D : 3D;
 103E : 3E;
 103F : 3F;
 1040 : 40;
 1041 : 41;
 1042 : 42;
 1043 : 43;
 1044 : 44;
 1045 : 45;
 1046 : 46;
 1047 : 47;
 1048 : 48;
 1049 : 49;
 104A : 4A;
 104B : 4B;
 104C : 4C;
 104D : 4D;
 104E : 4E;
 104F : 4F;
 1050 : 50;
 1051 : 51;
 1052 : 52;
 1053 : 53;
 1054 : 54;
 1055 : 55;
 1056 : 56;
 1057 : 57;
 1058 : 58;
 1059 : 59;
 105A : 5A;
 105B : 5B;
 105C : 5C;
 105D : 5D;
 105E : 5E;
 105F : 5F;
 1060 : 60;
 1061 : 61;
 1062 : 62;
 1063 : 63;
 1064 : 64;
 1065 : 65;
 1066 : 66;
 1067 : 67;
 1068 : 68;
 1069 : 69;
 106A : 6A;
 106B : 6B;
 106C : 6C;
 106D : 6D;
 106E : 6E;
 106F : 6F;
 1070 : 70;
 1071 : 71;
 1072 : 72;
 1073 : 73;
 1074 : 74;
 1075 : 75;
 1076 : 76;
 1077 : 77;
 1078 : 78;
 1079 : 79;
 107A : 7A;
 107B : 7B;
 107C : 7C;
 107D : 7D;
 107E : 7E;
 107F : 7F;
 1080 : 80;
 1081 : 81;
 1082 : 82;
 1083 : 83;
 1084 : 84;
 1085 : 85;
 1086 : 86;
 1087 : 87;
 1088 : 88;
 1089 : 89;
 108A : 8A;
 108B : 8B;
 108C : 8C;
 108D : 8D;
 108E : 8E;
 108F : 8F;
 1090 : 90;
 1091 : 91;
 1092 : 92;
 1093 : 93;
 1094 : 94;
 1095 : 95;
 1096 : 96;
 1097 : 97;
 1098 : 98;
 1099 : 99;
 109A : 9A;
 109B : 9B;
 109C : 9C;
 109D : 9D;
 109E : 9E;
 109F : 9F;
 10A0 : A0;
 10A1 : A1;
 10A2 : A2;
 10A3 : A3;
 10A4 : A4;
 10A5 : A5;
 10A6 : A6;
 10A7 : A7;
 10A8 : A8;
 10A9 : A9;
 10AA : AA;
 10AB : AB;
 10AC : AC;
 10AD : AD;
 10AE : AE;
 10AF : AF;
 10B0 : B0;
 10B1 : B1;
 10B2 : B2;
 10B3 : B3;
 10B4 : B4;
 10B5 : B5;
 10B6 : B6;
 10B7 : B7;
 10B8 : B8;
 10B9 : B9;
 10BA : BA;
 10BB : BB;
 10BC : BC;
 10BD : BD;
 10BE : BE;
 10BF : BF;
 10C0 : C0;
 10C1 : C1;
 10C2 : C2;
 10C3 : C3;
 10C4 : C4;
 10C5 : C5;
 10C6 : C6;
 10C7 : C7;
 10C8 : C8;
 10C9 : C9;
 10CA : CA;
 10CB : CB;
 10CC : CC;
 10CD : CD;
 10CE : CE;
 10CF : CF;
 10D0 : D0;
 10D1 : D1;
 10D2 : D2;
 10D3 : D3;
 10D4 : D4;
 10D5 : D5;
 10D6 : D6;
 10D7 : D7;
 10D8 : D8;
 10D9 : D9;
 10DA : DA;
 10DB : DB;
 10DC : DC;
 10DD : DD;
 10DE : DE;
 10DF : DF;
 10E0 : E0;
 10E1 : E1;
 10E2 : E2;
 10E3 : E3;
 10E4 : E4;
 10E5 : E5;
 10E6 : E6;
 10E7 : E7;
 10E8 : E8;
 10E9 : E9;
 10EA : EA;
 10EB : EB;
 10EC : EC;
 10ED : ED;
 10EE : EE;
 10EF : EF;
 10F0 : F0;
 10F1 : F1;
 10F2 : F2;
 10F3 : F3;
 10F4 : F4;
 10F5 : F5;
 10F6 : F6;
 10F7 : F7;
 10F8 : F8;
 10F9 : F9;
 10FA : FA;
 10FB : FB;
 10FC : FC;
 10FD : FD;
 10FE : FE;
 10FF : FF;
 1100 : 00;
 1101 : 01;
 1102 : 02;
 1103 : 03;
 1104 : 04;
 1105 : 05;
 1106 : 06;
 1107 : 07;
 1108 : 08;
 1109 : 09;
 110A : 0A;
 110B : 0B;
 110C : 0C;
 110D : 0D;
 110E : 0E;
 110F : 0F;
 1110 : 10;
 1111 : 11;
 1112 : 12;
 1113 : 13;
 1114 : 14;
 1115 : 15;
 1116 : 16;
 1117 : 17;
 1118 : 18;
 1119 : 19;
 111A : 1A;
 111B : 1B;
 111C : 1C;
 111D : 1D;
 111E : 1E;
 111F : 1F;
 1120 : 20;
 1121 : 21;
 1122 : 22;
 1123 : 23;
 1124 : 24;
 1125 : 25;
 1126 : 26;
 1127 : 27;
 1128 : 28;
 1129 : 29;
 112A : 2A;
 112B : 2B;
 112C : 2C;
 112D : 2D;
 112E : 2E;
 112F : 2F;
 1130 : 30;
 1131 : 31;
 1132 : 32;
 1133 : 33;
 1134 : 34;
 1135 : 35;
 1136 : 36;
 1137 : 37;
 1138 : 38;
 1139 : 39;
 113A : 3A;
 113B : 3B;
 113C : 3C;
 113D : 3D;
 113E : 3E;
 113F : 3F;
 1140 : 40;
 1141 : 41;
 1142 : 42;
 1143 : 43;
 1144 : 44;
 1145 : 45;
 1146 : 46;
 1147 : 47;
 1148 : 48;
 1149 : 49;
 114A : 4A;
 114B : 4B;
 114C : 4C;
 114D : 4D;
 114E : 4E;
 114F : 4F;
 1150 : 50;
 1151 : 51;
 1152 : 52;
 1153 : 53;
 1154 : 54;
 1155 : 55;
 1156 : 56;
 1157 : 57;
 1158 : 58;
 1159 : 59;
 115A : 5A;
 115B : 5B;
 115C : 5C;
 115D : 5D;
 115E : 5E;
 115F : 5F;
 1160 : 60;
 1161 : 61;
 1162 : 62;
 1163 : 63;
 1164 : 64;
 1165 : 65;
 1166 : 66;
 1167 : 67;
 1168 : 68;
 1169 : 69;
 116A : 6A;
 116B : 6B;
 116C : 6C;
 116D : 6D;
 116E : 6E;
 116F : 6F;
 1170 : 70;
 1171 : 71;
 1172 : 72;
 1173 : 73;
 1174 : 74;
 1175 : 75;
 1176 : 76;
 1177 : 77;
 1178 : 78;
 1179 : 79;
 117A : 7A;
 117B : 7B;
 117C : 7C;
 117D : 7D;
 117E : 7E;
 117F : 7F;
 1180 : 80;
 1181 : 81;
 1182 : 82;
 1183 : 83;
 1184 : 84;
 1185 : 85;
 1186 : 86;
 1187 : 87;
 1188 : 88;
 1189 : 89;
 118A : 8A;
 118B : 8B;
 118C : 8C;
 118D : 8D;
 118E : 8E;
 118F : 8F;
 1190 : 90;
 1191 : 91;
 1192 : 92;
 1193 : 93;
 1194 : 94;
 1195 : 95;
 1196 : 96;
 1197 : 97;
 1198 : 98;
 1199 : 99;
 119A : 9A;
 119B : 9B;
 119C : 9C;
 119D : 9D;
 119E : 9E;
 119F : 9F;
 11A0 : A0;
 11A1 : A1;
 11A2 : A2;
 11A3 : A3;
 11A4 : A4;
 11A5 : A5;
 11A6 : A6;
 11A7 : A7;
 11A8 : A8;
 11A9 : A9;
 11AA : AA;
 11AB : AB;
 11AC : AC;
 11AD : AD;
 11AE : AE;
 11AF : AF;
 11B0 : B0;
 11B1 : B1;
 11B2 : B2;
 11B3 : B3;
 11B4 : B4;
 11B5 : B5;
 11B6 : B6;
 11B7 : B7;
 11B8 : B8;
 11B9 : B9;
 11BA : BA;
 11BB : BB;
 11BC : BC;
 11BD : BD;
 11BE : BE;
 11BF : BF;
 11C0 : C0;
 11C1 : C1;
 11C2 : C2;
 11C3 : C3;
 11C4 : C4;
 11C5 : C5;
 11C6 : C6;
 11C7 : C7;
 11C8 : C8;
 11C9 : C9;
 11CA : CA;
 11CB : CB;
 11CC : CC;
 11CD : CD;
 11CE : CE;
 11CF : CF;
 11D0 : D0;
 11D1 : D1;
 11D2 : D2;
 11D3 : D3;
 11D4 : D4;
 11D5 : D5;
 11D6 : D6;
 11D7 : D7;
 11D8 : D8;
 11D9 : D9;
 11DA : DA;
 11DB : DB;
 11DC : DC;
 11DD : DD;
 11DE : DE;
 11DF : DF;
 11E0 : E0;
 11E1 : E1;
 11E2 : E2;
 11E3 : E3;
 11E4 : E4;
 11E5 : E5;
 11E6 : E6;
 11E7 : E7;
 11E8 : E8;
 11E9 : E9;
 11EA : EA;
 11EB : EB;
 11EC : EC;
 11ED : ED;
 11EE : EE;
 11EF : EF;
 11F0 : F0;
 11F1 : F1;
 11F2 : F2;
 11F3 : F3;
 11F4 : F4;
 11F5 : F5;
 11F6 : F6;
 11F7 : F7;
 11F8 : F8;
 11F9 : F9;
 11FA : FA;
 11FB : FB;
 11FC : FC;
 11FD : FD;
 11FE : FE;
 11FF : FF;
 1200 : 00;
 1201 : 01;
 1202 : 02;
 1203 : 03;
 1204 : 04;
 1205 : 05;
 1206 : 06;
 1207 : 07;
 1208 : 08;
 1209 : 09;
 120A : 0A;
 120B : 0B;
 120C : 0C;
 120D : 0D;
 120E : 0E;
 120F : 0F;
 1210 : 10;
 1211 : 11;
 1212 : 12;
 1213 : 13;
 1214 : 14;
 1215 : 15;
 1216 : 16;
 1217 : 17;
 1218 : 18;
 1219 : 19;
 121A : 1A;
 121B : 1B;
 121C : 1C;
 121D : 1D;
 121E : 1E;
 121F : 1F;
 1220 : 20;
 1221 : 21;
 1222 : 22;
 1223 : 23;
 1224 : 24;
 1225 : 25;
 1226 : 26;
 1227 : 27;
 1228 : 28;
 1229 : 29;
 122A : 2A;
 122B : 2B;
 122C : 2C;
 122D : 2D;
 122E : 2E;
 122F : 2F;
 1230 : 30;
 1231 : 31;
 1232 : 32;
 1233 : 33;
 1234 : 34;
 1235 : 35;
 1236 : 36;
 1237 : 37;
 1238 : 38;
 1239 : 39;
 123A : 3A;
 123B : 3B;
 123C : 3C;
 123D : 3D;
 123E : 3E;
 123F : 3F;
 1240 : 40;
 1241 : 41;
 1242 : 42;
 1243 : 43;
 1244 : 44;
 1245 : 45;
 1246 : 46;
 1247 : 47;
 1248 : 48;
 1249 : 49;
 124A : 4A;
 124B : 4B;
 124C : 4C;
 124D : 4D;
 124E : 4E;
 124F : 4F;
 1250 : 50;
 1251 : 51;
 1252 : 52;
 1253 : 53;
 1254 : 54;
 1255 : 55;
 1256 : 56;
 1257 : 57;
 1258 : 58;
 1259 : 59;
 125A : 5A;
 125B : 5B;
 125C : 5C;
 125D : 5D;
 125E : 5E;
 125F : 5F;
 1260 : 60;
 1261 : 61;
 1262 : 62;
 1263 : 63;
 1264 : 64;
 1265 : 65;
 1266 : 66;
 1267 : 67;
 1268 : 68;
 1269 : 69;
 126A : 6A;
 126B : 6B;
 126C : 6C;
 126D : 6D;
 126E : 6E;
 126F : 6F;
 1270 : 70;
 1271 : 71;
 1272 : 72;
 1273 : 73;
 1274 : 74;
 1275 : 75;
 1276 : 76;
 1277 : 77;
 1278 : 78;
 1279 : 79;
 127A : 7A;
 127B : 7B;
 127C : 7C;
 127D : 7D;
 127E : 7E;
 127F : 7F;
 1280 : 80;
 1281 : 81;
 1282 : 82;
 1283 : 83;
 1284 : 84;
 1285 : 85;
 1286 : 86;
 1287 : 87;
 1288 : 88;
 1289 : 89;
 128A : 8A;
 128B : 8B;
 128C : 8C;
 128D : 8D;
 128E : 8E;
 128F : 8F;
 1290 : 90;
 1291 : 91;
 1292 : 92;
 1293 : 93;
 1294 : 94;
 1295 : 95;
 1296 : 96;
 1297 : 97;
 1298 : 98;
 1299 : 99;
 129A : 9A;
 129B : 9B;
 129C : 9C;
 129D : 9D;
 129E : 9E;
 129F : 9F;
 12A0 : A0;
 12A1 : A1;
 12A2 : A2;
 12A3 : A3;
 12A4 : A4;
 12A5 : A5;
 12A6 : A6;
 12A7 : A7;
 12A8 : A8;
 12A9 : A9;
 12AA : AA;
 12AB : AB;
 12AC : AC;
 12AD : AD;
 12AE : AE;
 12AF : AF;
 12B0 : B0;
 12B1 : B1;
 12B2 : B2;
 12B3 : B3;
 12B4 : B4;
 12B5 : B5;
 12B6 : B6;
 12B7 : B7;
 12B8 : B8;
 12B9 : B9;
 12BA : BA;
 12BB : BB;
 12BC : BC;
 12BD : BD;
 12BE : BE;
 12BF : BF;
 12C0 : C0;
 12C1 : C1;
 12C2 : C2;
 12C3 : C3;
 12C4 : C4;
 12C5 : C5;
 12C6 : C6;
 12C7 : C7;
 12C8 : C8;
 12C9 : C9;
 12CA : CA;
 12CB : CB;
 12CC : CC;
 12CD : CD;
 12CE : CE;
 12CF : CF;
 12D0 : D0;
 12D1 : D1;
 12D2 : D2;
 12D3 : D3;
 12D4 : D4;
 12D5 : D5;
 12D6 : D6;
 12D7 : D7;
 12D8 : D8;
 12D9 : D9;
 12DA : DA;
 12DB : DB;
 12DC : DC;
 12DD : DD;
 12DE : DE;
 12DF : DF;
 12E0 : E0;
 12E1 : E1;
 12E2 : E2;
 12E3 : E3;
 12E4 : E4;
 12E5 : E5;
 12E6 : E6;
 12E7 : E7;
 12E8 : E8;
 12E9 : E9;
 12EA : EA;
 12EB : EB;
 12EC : EC;
 12ED : ED;
 12EE : EE;
 12EF : EF;
 12F0 : F0;
 12F1 : F1;
 12F2 : F2;
 12F3 : F3;
 12F4 : F4;
 12F5 : F5;
 12F6 : F6;
 12F7 : F7;
 12F8 : F8;
 12F9 : F9;
 12FA : FA;
 12FB : FB;
 12FC : FC;
 12FD : FD;
 12FE : FE;
 12FF : FF;
 1300 : 00;
 1301 : 01;
 1302 : 02;
 1303 : 03;
 1304 : 04;
 1305 : 05;
 1306 : 06;
 1307 : 07;
 1308 : 08;
 1309 : 09;
 130A : 0A;
 130B : 0B;
 130C : 0C;
 130D : 0D;
 130E : 0E;
 130F : 0F;
 1310 : 10;
 1311 : 11;
 1312 : 12;
 1313 : 13;
 1314 : 14;
 1315 : 15;
 1316 : 16;
 1317 : 17;
 1318 : 18;
 1319 : 19;
 131A : 1A;
 131B : 1B;
 131C : 1C;
 131D : 1D;
 131E : 1E;
 131F : 1F;
 1320 : 20;
 1321 : 21;
 1322 : 22;
 1323 : 23;
 1324 : 24;
 1325 : 25;
 1326 : 26;
 1327 : 27;
 1328 : 28;
 1329 : 29;
 132A : 2A;
 132B : 2B;
 132C : 2C;
 132D : 2D;
 132E : 2E;
 132F : 2F;
 1330 : 30;
 1331 : 31;
 1332 : 32;
 1333 : 33;
 1334 : 34;
 1335 : 35;
 1336 : 36;
 1337 : 37;
 1338 : 38;
 1339 : 39;
 133A : 3A;
 133B : 3B;
 133C : 3C;
 133D : 3D;
 133E : 3E;
 133F : 3F;
 1340 : 40;
 1341 : 41;
 1342 : 42;
 1343 : 43;
 1344 : 44;
 1345 : 45;
 1346 : 46;
 1347 : 47;
 1348 : 48;
 1349 : 49;
 134A : 4A;
 134B : 4B;
 134C : 4C;
 134D : 4D;
 134E : 4E;
 134F : 4F;
 1350 : 50;
 1351 : 51;
 1352 : 52;
 1353 : 53;
 1354 : 54;
 1355 : 55;
 1356 : 56;
 1357 : 57;
 1358 : 58;
 1359 : 59;
 135A : 5A;
 135B : 5B;
 135C : 5C;
 135D : 5D;
 135E : 5E;
 135F : 5F;
 1360 : 60;
 1361 : 61;
 1362 : 62;
 1363 : 63;
 1364 : 64;
 1365 : 65;
 1366 : 66;
 1367 : 67;
 1368 : 68;
 1369 : 69;
 136A : 6A;
 136B : 6B;
 136C : 6C;
 136D : 6D;
 136E : 6E;
 136F : 6F;
 1370 : 70;
 1371 : 71;
 1372 : 72;
 1373 : 73;
 1374 : 74;
 1375 : 75;
 1376 : 76;
 1377 : 77;
 1378 : 78;
 1379 : 79;
 137A : 7A;
 137B : 7B;
 137C : 7C;
 137D : 7D;
 137E : 7E;
 137F : 7F;
 1380 : 80;
 1381 : 81;
 1382 : 82;
 1383 : 83;
 1384 : 84;
 1385 : 85;
 1386 : 86;
 1387 : 87;
 1388 : 88;
 1389 : 89;
 138A : 8A;
 138B : 8B;
 138C : 8C;
 138D : 8D;
 138E : 8E;
 138F : 8F;
 1390 : 90;
 1391 : 91;
 1392 : 92;
 1393 : 93;
 1394 : 94;
 1395 : 95;
 1396 : 96;
 1397 : 97;
 1398 : 98;
 1399 : 99;
 139A : 9A;
 139B : 9B;
 139C : 9C;
 139D : 9D;
 139E : 9E;
 139F : 9F;
 13A0 : A0;
 13A1 : A1;
 13A2 : A2;
 13A3 : A3;
 13A4 : A4;
 13A5 : A5;
 13A6 : A6;
 13A7 : A7;
 13A8 : A8;
 13A9 : A9;
 13AA : AA;
 13AB : AB;
 13AC : AC;
 13AD : AD;
 13AE : AE;
 13AF : AF;
 13B0 : B0;
 13B1 : B1;
 13B2 : B2;
 13B3 : B3;
 13B4 : B4;
 13B5 : B5;
 13B6 : B6;
 13B7 : B7;
 13B8 : B8;
 13B9 : B9;
 13BA : BA;
 13BB : BB;
 13BC : BC;
 13BD : BD;
 13BE : BE;
 13BF : BF;
 13C0 : C0;
 13C1 : C1;
 13C2 : C2;
 13C3 : C3;
 13C4 : C4;
 13C5 : C5;
 13C6 : C6;
 13C7 : C7;
 13C8 : C8;
 13C9 : C9;
 13CA : CA;
 13CB : CB;
 13CC : CC;
 13CD : CD;
 13CE : CE;
 13CF : CF;
 13D0 : D0;
 13D1 : D1;
 13D2 : D2;
 13D3 : D3;
 13D4 : D4;
 13D5 : D5;
 13D6 : D6;
 13D7 : D7;
 13D8 : D8;
 13D9 : D9;
 13DA : DA;
 13DB : DB;
 13DC : DC;
 13DD : DD;
 13DE : DE;
 13DF : DF;
 13E0 : E0;
 13E1 : E1;
 13E2 : E2;
 13E3 : E3;
 13E4 : E4;
 13E5 : E5;
 13E6 : E6;
 13E7 : E7;
 13E8 : E8;
 13E9 : E9;
 13EA : EA;
 13EB : EB;
 13EC : EC;
 13ED : ED;
 13EE : EE;
 13EF : EF;
 13F0 : F0;
 13F1 : F1;
 13F2 : F2;
 13F3 : F3;
 13F4 : F4;
 13F5 : F5;
 13F6 : F6;
 13F7 : F7;
 13F8 : F8;
 13F9 : F9;
 13FA : FA;
 13FB : FB;
 13FC : FC;
 13FD : FD;
 13FE : FE;
 13FF : FF;
 1400 : 00;
 1401 : 01;
 1402 : 02;
 1403 : 03;
 1404 : 04;
 1405 : 05;
 1406 : 06;
 1407 : 07;
 1408 : 08;
 1409 : 09;
 140A : 0A;
 140B : 0B;
 140C : 0C;
 140D : 0D;
 140E : 0E;
 140F : 0F;
 1410 : 10;
 1411 : 11;
 1412 : 12;
 1413 : 13;
 1414 : 14;
 1415 : 15;
 1416 : 16;
 1417 : 17;
 1418 : 18;
 1419 : 19;
 141A : 1A;
 141B : 1B;
 141C : 1C;
 141D : 1D;
 141E : 1E;
 141F : 1F;
 1420 : 20;
 1421 : 21;
 1422 : 22;
 1423 : 23;
 1424 : 24;
 1425 : 25;
 1426 : 26;
 1427 : 27;
 1428 : 28;
 1429 : 29;
 142A : 2A;
 142B : 2B;
 142C : 2C;
 142D : 2D;
 142E : 2E;
 142F : 2F;
 1430 : 30;
 1431 : 31;
 1432 : 32;
 1433 : 33;
 1434 : 34;
 1435 : 35;
 1436 : 36;
 1437 : 37;
 1438 : 38;
 1439 : 39;
 143A : 3A;
 143B : 3B;
 143C : 3C;
 143D : 3D;
 143E : 3E;
 143F : 3F;
 1440 : 40;
 1441 : 41;
 1442 : 42;
 1443 : 43;
 1444 : 44;
 1445 : 45;
 1446 : 46;
 1447 : 47;
 1448 : 48;
 1449 : 49;
 144A : 4A;
 144B : 4B;
 144C : 4C;
 144D : 4D;
 144E : 4E;
 144F : 4F;
 1450 : 50;
 1451 : 51;
 1452 : 52;
 1453 : 53;
 1454 : 54;
 1455 : 55;
 1456 : 56;
 1457 : 57;
 1458 : 58;
 1459 : 59;
 145A : 5A;
 145B : 5B;
 145C : 5C;
 145D : 5D;
 145E : 5E;
 145F : 5F;
 1460 : 60;
 1461 : 61;
 1462 : 62;
 1463 : 63;
 1464 : 64;
 1465 : 65;
 1466 : 66;
 1467 : 67;
 1468 : 68;
 1469 : 69;
 146A : 6A;
 146B : 6B;
 146C : 6C;
 146D : 6D;
 146E : 6E;
 146F : 6F;
 1470 : 70;
 1471 : 71;
 1472 : 72;
 1473 : 73;
 1474 : 74;
 1475 : 75;
 1476 : 76;
 1477 : 77;
 1478 : 78;
 1479 : 79;
 147A : 7A;
 147B : 7B;
 147C : 7C;
 147D : 7D;
 147E : 7E;
 147F : 7F;
 1480 : 80;
 1481 : 81;
 1482 : 82;
 1483 : 83;
 1484 : 84;
 1485 : 85;
 1486 : 86;
 1487 : 87;
 1488 : 88;
 1489 : 89;
 148A : 8A;
 148B : 8B;
 148C : 8C;
 148D : 8D;
 148E : 8E;
 148F : 8F;
 1490 : 90;
 1491 : 91;
 1492 : 92;
 1493 : 93;
 1494 : 94;
 1495 : 95;
 1496 : 96;
 1497 : 97;
 1498 : 98;
 1499 : 99;
 149A : 9A;
 149B : 9B;
 149C : 9C;
 149D : 9D;
 149E : 9E;
 149F : 9F;
 14A0 : A0;
 14A1 : A1;
 14A2 : A2;
 14A3 : A3;
 14A4 : A4;
 14A5 : A5;
 14A6 : A6;
 14A7 : A7;
 14A8 : A8;
 14A9 : A9;
 14AA : AA;
 14AB : AB;
 14AC : AC;
 14AD : AD;
 14AE : AE;
 14AF : AF;
 14B0 : B0;
 14B1 : B1;
 14B2 : B2;
 14B3 : B3;
 14B4 : B4;
 14B5 : B5;
 14B6 : B6;
 14B7 : B7;
 14B8 : B8;
 14B9 : B9;
 14BA : BA;
 14BB : BB;
 14BC : BC;
 14BD : BD;
 14BE : BE;
 14BF : BF;
 14C0 : C0;
 14C1 : C1;
 14C2 : C2;
 14C3 : C3;
 14C4 : C4;
 14C5 : C5;
 14C6 : C6;
 14C7 : C7;
 14C8 : C8;
 14C9 : C9;
 14CA : CA;
 14CB : CB;
 14CC : CC;
 14CD : CD;
 14CE : CE;
 14CF : CF;
 14D0 : D0;
 14D1 : D1;
 14D2 : D2;
 14D3 : D3;
 14D4 : D4;
 14D5 : D5;
 14D6 : D6;
 14D7 : D7;
 14D8 : D8;
 14D9 : D9;
 14DA : DA;
 14DB : DB;
 14DC : DC;
 14DD : DD;
 14DE : DE;
 14DF : DF;
 14E0 : E0;
 14E1 : E1;
 14E2 : E2;
 14E3 : E3;
 14E4 : E4;
 14E5 : E5;
 14E6 : E6;
 14E7 : E7;
 14E8 : E8;
 14E9 : E9;
 14EA : EA;
 14EB : EB;
 14EC : EC;
 14ED : ED;
 14EE : EE;
 14EF : EF;
 14F0 : F0;
 14F1 : F1;
 14F2 : F2;
 14F3 : F3;
 14F4 : F4;
 14F5 : F5;
 14F6 : F6;
 14F7 : F7;
 14F8 : F8;
 14F9 : F9;
 14FA : FA;
 14FB : FB;
 14FC : FC;
 14FD : FD;
 14FE : FE;
 14FF : FF;
 1500 : 00;
 1501 : 01;
 1502 : 02;
 1503 : 03;
 1504 : 04;
 1505 : 05;
 1506 : 06;
 1507 : 07;
 1508 : 08;
 1509 : 09;
 150A : 0A;
 150B : 0B;
 150C : 0C;
 150D : 0D;
 150E : 0E;
 150F : 0F;
 1510 : 10;
 1511 : 11;
 1512 : 12;
 1513 : 13;
 1514 : 14;
 1515 : 15;
 1516 : 16;
 1517 : 17;
 1518 : 18;
 1519 : 19;
 151A : 1A;
 151B : 1B;
 151C : 1C;
 151D : 1D;
 151E : 1E;
 151F : 1F;
 1520 : 20;
 1521 : 21;
 1522 : 22;
 1523 : 23;
 1524 : 24;
 1525 : 25;
 1526 : 26;
 1527 : 27;
 1528 : 28;
 1529 : 29;
 152A : 2A;
 152B : 2B;
 152C : 2C;
 152D : 2D;
 152E : 2E;
 152F : 2F;
 1530 : 30;
 1531 : 31;
 1532 : 32;
 1533 : 33;
 1534 : 34;
 1535 : 35;
 1536 : 36;
 1537 : 37;
 1538 : 38;
 1539 : 39;
 153A : 3A;
 153B : 3B;
 153C : 3C;
 153D : 3D;
 153E : 3E;
 153F : 3F;
 1540 : 40;
 1541 : 41;
 1542 : 42;
 1543 : 43;
 1544 : 44;
 1545 : 45;
 1546 : 46;
 1547 : 47;
 1548 : 48;
 1549 : 49;
 154A : 4A;
 154B : 4B;
 154C : 4C;
 154D : 4D;
 154E : 4E;
 154F : 4F;
 1550 : 50;
 1551 : 51;
 1552 : 52;
 1553 : 53;
 1554 : 54;
 1555 : 55;
 1556 : 56;
 1557 : 57;
 1558 : 58;
 1559 : 59;
 155A : 5A;
 155B : 5B;
 155C : 5C;
 155D : 5D;
 155E : 5E;
 155F : 5F;
 1560 : 60;
 1561 : 61;
 1562 : 62;
 1563 : 63;
 1564 : 64;
 1565 : 65;
 1566 : 66;
 1567 : 67;
 1568 : 68;
 1569 : 69;
 156A : 6A;
 156B : 6B;
 156C : 6C;
 156D : 6D;
 156E : 6E;
 156F : 6F;
 1570 : 70;
 1571 : 71;
 1572 : 72;
 1573 : 73;
 1574 : 74;
 1575 : 75;
 1576 : 76;
 1577 : 77;
 1578 : 78;
 1579 : 79;
 157A : 7A;
 157B : 7B;
 157C : 7C;
 157D : 7D;
 157E : 7E;
 157F : 7F;
 1580 : 80;
 1581 : 81;
 1582 : 82;
 1583 : 83;
 1584 : 84;
 1585 : 85;
 1586 : 86;
 1587 : 87;
 1588 : 88;
 1589 : 89;
 158A : 8A;
 158B : 8B;
 158C : 8C;
 158D : 8D;
 158E : 8E;
 158F : 8F;
 1590 : 90;
 1591 : 91;
 1592 : 92;
 1593 : 93;
 1594 : 94;
 1595 : 95;
 1596 : 96;
 1597 : 97;
 1598 : 98;
 1599 : 99;
 159A : 9A;
 159B : 9B;
 159C : 9C;
 159D : 9D;
 159E : 9E;
 159F : 9F;
 15A0 : A0;
 15A1 : A1;
 15A2 : A2;
 15A3 : A3;
 15A4 : A4;
 15A5 : A5;
 15A6 : A6;
 15A7 : A7;
 15A8 : A8;
 15A9 : A9;
 15AA : AA;
 15AB : AB;
 15AC : AC;
 15AD : AD;
 15AE : AE;
 15AF : AF;
 15B0 : B0;
 15B1 : B1;
 15B2 : B2;
 15B3 : B3;
 15B4 : B4;
 15B5 : B5;
 15B6 : B6;
 15B7 : B7;
 15B8 : B8;
 15B9 : B9;
 15BA : BA;
 15BB : BB;
 15BC : BC;
 15BD : BD;
 15BE : BE;
 15BF : BF;
 15C0 : C0;
 15C1 : C1;
 15C2 : C2;
 15C3 : C3;
 15C4 : C4;
 15C5 : C5;
 15C6 : C6;
 15C7 : C7;
 15C8 : C8;
 15C9 : C9;
 15CA : CA;
 15CB : CB;
 15CC : CC;
 15CD : CD;
 15CE : CE;
 15CF : CF;
 15D0 : D0;
 15D1 : D1;
 15D2 : D2;
 15D3 : D3;
 15D4 : D4;
 15D5 : D5;
 15D6 : D6;
 15D7 : D7;
 15D8 : D8;
 15D9 : D9;
 15DA : DA;
 15DB : DB;
 15DC : DC;
 15DD : DD;
 15DE : DE;
 15DF : DF;
 15E0 : E0;
 15E1 : E1;
 15E2 : E2;
 15E3 : E3;
 15E4 : E4;
 15E5 : E5;
 15E6 : E6;
 15E7 : E7;
 15E8 : E8;
 15E9 : E9;
 15EA : EA;
 15EB : EB;
 15EC : EC;
 15ED : ED;
 15EE : EE;
 15EF : EF;
 15F0 : F0;
 15F1 : F1;
 15F2 : F2;
 15F3 : F3;
 15F4 : F4;
 15F5 : F5;
 15F6 : F6;
 15F7 : F7;
 15F8 : F8;
 15F9 : F9;
 15FA : FA;
 15FB : FB;
 15FC : FC;
 15FD : FD;
 15FE : FE;
 15FF : FF;
 1600 : 00;
 1601 : 01;
 1602 : 02;
 1603 : 03;
 1604 : 04;
 1605 : 05;
 1606 : 06;
 1607 : 07;
 1608 : 08;
 1609 : 09;
 160A : 0A;
 160B : 0B;
 160C : 0C;
 160D : 0D;
 160E : 0E;
 160F : 0F;
 1610 : 10;
 1611 : 11;
 1612 : 12;
 1613 : 13;
 1614 : 14;
 1615 : 15;
 1616 : 16;
 1617 : 17;
 1618 : 18;
 1619 : 19;
 161A : 1A;
 161B : 1B;
 161C : 1C;
 161D : 1D;
 161E : 1E;
 161F : 1F;
 1620 : 20;
 1621 : 21;
 1622 : 22;
 1623 : 23;
 1624 : 24;
 1625 : 25;
 1626 : 26;
 1627 : 27;
 1628 : 28;
 1629 : 29;
 162A : 2A;
 162B : 2B;
 162C : 2C;
 162D : 2D;
 162E : 2E;
 162F : 2F;
 1630 : 30;
 1631 : 31;
 1632 : 32;
 1633 : 33;
 1634 : 34;
 1635 : 35;
 1636 : 36;
 1637 : 37;
 1638 : 38;
 1639 : 39;
 163A : 3A;
 163B : 3B;
 163C : 3C;
 163D : 3D;
 163E : 3E;
 163F : 3F;
 1640 : 40;
 1641 : 41;
 1642 : 42;
 1643 : 43;
 1644 : 44;
 1645 : 45;
 1646 : 46;
 1647 : 47;
 1648 : 48;
 1649 : 49;
 164A : 4A;
 164B : 4B;
 164C : 4C;
 164D : 4D;
 164E : 4E;
 164F : 4F;
 1650 : 50;
 1651 : 51;
 1652 : 52;
 1653 : 53;
 1654 : 54;
 1655 : 55;
 1656 : 56;
 1657 : 57;
 1658 : 58;
 1659 : 59;
 165A : 5A;
 165B : 5B;
 165C : 5C;
 165D : 5D;
 165E : 5E;
 165F : 5F;
 1660 : 60;
 1661 : 61;
 1662 : 62;
 1663 : 63;
 1664 : 64;
 1665 : 65;
 1666 : 66;
 1667 : 67;
 1668 : 68;
 1669 : 69;
 166A : 6A;
 166B : 6B;
 166C : 6C;
 166D : 6D;
 166E : 6E;
 166F : 6F;
 1670 : 70;
 1671 : 71;
 1672 : 72;
 1673 : 73;
 1674 : 74;
 1675 : 75;
 1676 : 76;
 1677 : 77;
 1678 : 78;
 1679 : 79;
 167A : 7A;
 167B : 7B;
 167C : 7C;
 167D : 7D;
 167E : 7E;
 167F : 7F;
 1680 : 80;
 1681 : 81;
 1682 : 82;
 1683 : 83;
 1684 : 84;
 1685 : 85;
 1686 : 86;
 1687 : 87;
 1688 : 88;
 1689 : 89;
 168A : 8A;
 168B : 8B;
 168C : 8C;
 168D : 8D;
 168E : 8E;
 168F : 8F;
 1690 : 90;
 1691 : 91;
 1692 : 92;
 1693 : 93;
 1694 : 94;
 1695 : 95;
 1696 : 96;
 1697 : 97;
 1698 : 98;
 1699 : 99;
 169A : 9A;
 169B : 9B;
 169C : 9C;
 169D : 9D;
 169E : 9E;
 169F : 9F;
 16A0 : A0;
 16A1 : A1;
 16A2 : A2;
 16A3 : A3;
 16A4 : A4;
 16A5 : A5;
 16A6 : A6;
 16A7 : A7;
 16A8 : A8;
 16A9 : A9;
 16AA : AA;
 16AB : AB;
 16AC : AC;
 16AD : AD;
 16AE : AE;
 16AF : AF;
 16B0 : B0;
 16B1 : B1;
 16B2 : B2;
 16B3 : B3;
 16B4 : B4;
 16B5 : B5;
 16B6 : B6;
 16B7 : B7;
 16B8 : B8;
 16B9 : B9;
 16BA : BA;
 16BB : BB;
 16BC : BC;
 16BD : BD;
 16BE : BE;
 16BF : BF;
 16C0 : C0;
 16C1 : C1;
 16C2 : C2;
 16C3 : C3;
 16C4 : C4;
 16C5 : C5;
 16C6 : C6;
 16C7 : C7;
 16C8 : C8;
 16C9 : C9;
 16CA : CA;
 16CB : CB;
 16CC : CC;
 16CD : CD;
 16CE : CE;
 16CF : CF;
 16D0 : D0;
 16D1 : D1;
 16D2 : D2;
 16D3 : D3;
 16D4 : D4;
 16D5 : D5;
 16D6 : D6;
 16D7 : D7;
 16D8 : D8;
 16D9 : D9;
 16DA : DA;
 16DB : DB;
 16DC : DC;
 16DD : DD;
 16DE : DE;
 16DF : DF;
 16E0 : E0;
 16E1 : E1;
 16E2 : E2;
 16E3 : E3;
 16E4 : E4;
 16E5 : E5;
 16E6 : E6;
 16E7 : E7;
 16E8 : E8;
 16E9 : E9;
 16EA : EA;
 16EB : EB;
 16EC : EC;
 16ED : ED;
 16EE : EE;
 16EF : EF;
 16F0 : F0;
 16F1 : F1;
 16F2 : F2;
 16F3 : F3;
 16F4 : F4;
 16F5 : F5;
 16F6 : F6;
 16F7 : F7;
 16F8 : F8;
 16F9 : F9;
 16FA : FA;
 16FB : FB;
 16FC : FC;
 16FD : FD;
 16FE : FE;
 16FF : FF;
 1700 : 00;
 1701 : 01;
 1702 : 02;
 1703 : 03;
 1704 : 04;
 1705 : 05;
 1706 : 06;
 1707 : 07;
 1708 : 08;
 1709 : 09;
 170A : 0A;
 170B : 0B;
 170C : 0C;
 170D : 0D;
 170E : 0E;
 170F : 0F;
 1710 : 10;
 1711 : 11;
 1712 : 12;
 1713 : 13;
 1714 : 14;
 1715 : 15;
 1716 : 16;
 1717 : 17;
 1718 : 18;
 1719 : 19;
 171A : 1A;
 171B : 1B;
 171C : 1C;
 171D : 1D;
 171E : 1E;
 171F : 1F;
 1720 : 20;
 1721 : 21;
 1722 : 22;
 1723 : 23;
 1724 : 24;
 1725 : 25;
 1726 : 26;
 1727 : 27;
 1728 : 28;
 1729 : 29;
 172A : 2A;
 172B : 2B;
 172C : 2C;
 172D : 2D;
 172E : 2E;
 172F : 2F;
 1730 : 30;
 1731 : 31;
 1732 : 32;
 1733 : 33;
 1734 : 34;
 1735 : 35;
 1736 : 36;
 1737 : 37;
 1738 : 38;
 1739 : 39;
 173A : 3A;
 173B : 3B;
 173C : 3C;
 173D : 3D;
 173E : 3E;
 173F : 3F;
 1740 : 40;
 1741 : 41;
 1742 : 42;
 1743 : 43;
 1744 : 44;
 1745 : 45;
 1746 : 46;
 1747 : 47;
 1748 : 48;
 1749 : 49;
 174A : 4A;
 174B : 4B;
 174C : 4C;
 174D : 4D;
 174E : 4E;
 174F : 4F;
 1750 : 50;
 1751 : 51;
 1752 : 52;
 1753 : 53;
 1754 : 54;
 1755 : 55;
 1756 : 56;
 1757 : 57;
 1758 : 58;
 1759 : 59;
 175A : 5A;
 175B : 5B;
 175C : 5C;
 175D : 5D;
 175E : 5E;
 175F : 5F;
 1760 : 60;
 1761 : 61;
 1762 : 62;
 1763 : 63;
 1764 : 64;
 1765 : 65;
 1766 : 66;
 1767 : 67;
 1768 : 68;
 1769 : 69;
 176A : 6A;
 176B : 6B;
 176C : 6C;
 176D : 6D;
 176E : 6E;
 176F : 6F;
 1770 : 70;
 1771 : 71;
 1772 : 72;
 1773 : 73;
 1774 : 74;
 1775 : 75;
 1776 : 76;
 1777 : 77;
 1778 : 78;
 1779 : 79;
 177A : 7A;
 177B : 7B;
 177C : 7C;
 177D : 7D;
 177E : 7E;
 177F : 7F;
 1780 : 80;
 1781 : 81;
 1782 : 82;
 1783 : 83;
 1784 : 84;
 1785 : 85;
 1786 : 86;
 1787 : 87;
 1788 : 88;
 1789 : 89;
 178A : 8A;
 178B : 8B;
 178C : 8C;
 178D : 8D;
 178E : 8E;
 178F : 8F;
 1790 : 90;
 1791 : 91;
 1792 : 92;
 1793 : 93;
 1794 : 94;
 1795 : 95;
 1796 : 96;
 1797 : 97;
 1798 : 98;
 1799 : 99;
 179A : 9A;
 179B : 9B;
 179C : 9C;
 179D : 9D;
 179E : 9E;
 179F : 9F;
 17A0 : A0;
 17A1 : A1;
 17A2 : A2;
 17A3 : A3;
 17A4 : A4;
 17A5 : A5;
 17A6 : A6;
 17A7 : A7;
 17A8 : A8;
 17A9 : A9;
 17AA : AA;
 17AB : AB;
 17AC : AC;
 17AD : AD;
 17AE : AE;
 17AF : AF;
 17B0 : B0;
 17B1 : B1;
 17B2 : B2;
 17B3 : B3;
 17B4 : B4;
 17B5 : B5;
 17B6 : B6;
 17B7 : B7;
 17B8 : B8;
 17B9 : B9;
 17BA : BA;
 17BB : BB;
 17BC : BC;
 17BD : BD;
 17BE : BE;
 17BF : BF;
 17C0 : C0;
 17C1 : C1;
 17C2 : C2;
 17C3 : C3;
 17C4 : C4;
 17C5 : C5;
 17C6 : C6;
 17C7 : C7;
 17C8 : C8;
 17C9 : C9;
 17CA : CA;
 17CB : CB;
 17CC : CC;
 17CD : CD;
 17CE : CE;
 17CF : CF;
 17D0 : D0;
 17D1 : D1;
 17D2 : D2;
 17D3 : D3;
 17D4 : D4;
 17D5 : D5;
 17D6 : D6;
 17D7 : D7;
 17D8 : D8;
 17D9 : D9;
 17DA : DA;
 17DB : DB;
 17DC : DC;
 17DD : DD;
 17DE : DE;
 17DF : DF;
 17E0 : E0;
 17E1 : E1;
 17E2 : E2;
 17E3 : E3;
 17E4 : E4;
 17E5 : E5;
 17E6 : E6;
 17E7 : E7;
 17E8 : E8;
 17E9 : E9;
 17EA : EA;
 17EB : EB;
 17EC : EC;
 17ED : ED;
 17EE : EE;
 17EF : EF;
 17F0 : F0;
 17F1 : F1;
 17F2 : F2;
 17F3 : F3;
 17F4 : F4;
 17F5 : F5;
 17F6 : F6;
 17F7 : F7;
 17F8 : F8;
 17F9 : F9;
 17FA : FA;
 17FB : FB;
 17FC : FC;
 17FD : FD;
 17FE : FE;
 17FF : FF;
 1800 : 00;
 1801 : 01;
 1802 : 02;
 1803 : 03;
 1804 : 04;
 1805 : 05;
 1806 : 06;
 1807 : 07;
 1808 : 08;
 1809 : 09;
 180A : 0A;
 180B : 0B;
 180C : 0C;
 180D : 0D;
 180E : 0E;
 180F : 0F;
 1810 : 10;
 1811 : 11;
 1812 : 12;
 1813 : 13;
 1814 : 14;
 1815 : 15;
 1816 : 16;
 1817 : 17;
 1818 : 18;
 1819 : 19;
 181A : 1A;
 181B : 1B;
 181C : 1C;
 181D : 1D;
 181E : 1E;
 181F : 1F;
 1820 : 20;
 1821 : 21;
 1822 : 22;
 1823 : 23;
 1824 : 24;
 1825 : 25;
 1826 : 26;
 1827 : 27;
 1828 : 28;
 1829 : 29;
 182A : 2A;
 182B : 2B;
 182C : 2C;
 182D : 2D;
 182E : 2E;
 182F : 2F;
 1830 : 30;
 1831 : 31;
 1832 : 32;
 1833 : 33;
 1834 : 34;
 1835 : 35;
 1836 : 36;
 1837 : 37;
 1838 : 38;
 1839 : 39;
 183A : 3A;
 183B : 3B;
 183C : 3C;
 183D : 3D;
 183E : 3E;
 183F : 3F;
 1840 : 40;
 1841 : 41;
 1842 : 42;
 1843 : 43;
 1844 : 44;
 1845 : 45;
 1846 : 46;
 1847 : 47;
 1848 : 48;
 1849 : 49;
 184A : 4A;
 184B : 4B;
 184C : 4C;
 184D : 4D;
 184E : 4E;
 184F : 4F;
 1850 : 50;
 1851 : 51;
 1852 : 52;
 1853 : 53;
 1854 : 54;
 1855 : 55;
 1856 : 56;
 1857 : 57;
 1858 : 58;
 1859 : 59;
 185A : 5A;
 185B : 5B;
 185C : 5C;
 185D : 5D;
 185E : 5E;
 185F : 5F;
 1860 : 60;
 1861 : 61;
 1862 : 62;
 1863 : 63;
 1864 : 64;
 1865 : 65;
 1866 : 66;
 1867 : 67;
 1868 : 68;
 1869 : 69;
 186A : 6A;
 186B : 6B;
 186C : 6C;
 186D : 6D;
 186E : 6E;
 186F : 6F;
 1870 : 70;
 1871 : 71;
 1872 : 72;
 1873 : 73;
 1874 : 74;
 1875 : 75;
 1876 : 76;
 1877 : 77;
 1878 : 78;
 1879 : 79;
 187A : 7A;
 187B : 7B;
 187C : 7C;
 187D : 7D;
 187E : 7E;
 187F : 7F;
 1880 : 80;
 1881 : 81;
 1882 : 82;
 1883 : 83;
 1884 : 84;
 1885 : 85;
 1886 : 86;
 1887 : 87;
 1888 : 88;
 1889 : 89;
 188A : 8A;
 188B : 8B;
 188C : 8C;
 188D : 8D;
 188E : 8E;
 188F : 8F;
 1890 : 90;
 1891 : 91;
 1892 : 92;
 1893 : 93;
 1894 : 94;
 1895 : 95;
 1896 : 96;
 1897 : 97;
 1898 : 98;
 1899 : 99;
 189A : 9A;
 189B : 9B;
 189C : 9C;
 189D : 9D;
 189E : 9E;
 189F : 9F;
 18A0 : A0;
 18A1 : A1;
 18A2 : A2;
 18A3 : A3;
 18A4 : A4;
 18A5 : A5;
 18A6 : A6;
 18A7 : A7;
 18A8 : A8;
 18A9 : A9;
 18AA : AA;
 18AB : AB;
 18AC : AC;
 18AD : AD;
 18AE : AE;
 18AF : AF;
 18B0 : B0;
 18B1 : B1;
 18B2 : B2;
 18B3 : B3;
 18B4 : B4;
 18B5 : B5;
 18B6 : B6;
 18B7 : B7;
 18B8 : B8;
 18B9 : B9;
 18BA : BA;
 18BB : BB;
 18BC : BC;
 18BD : BD;
 18BE : BE;
 18BF : BF;
 18C0 : C0;
 18C1 : C1;
 18C2 : C2;
 18C3 : C3;
 18C4 : C4;
 18C5 : C5;
 18C6 : C6;
 18C7 : C7;
 18C8 : C8;
 18C9 : C9;
 18CA : CA;
 18CB : CB;
 18CC : CC;
 18CD : CD;
 18CE : CE;
 18CF : CF;
 18D0 : D0;
 18D1 : D1;
 18D2 : D2;
 18D3 : D3;
 18D4 : D4;
 18D5 : D5;
 18D6 : D6;
 18D7 : D7;
 18D8 : D8;
 18D9 : D9;
 18DA : DA;
 18DB : DB;
 18DC : DC;
 18DD : DD;
 18DE : DE;
 18DF : DF;
 18E0 : E0;
 18E1 : E1;
 18E2 : E2;
 18E3 : E3;
 18E4 : E4;
 18E5 : E5;
 18E6 : E6;
 18E7 : E7;
 18E8 : E8;
 18E9 : E9;
 18EA : EA;
 18EB : EB;
 18EC : EC;
 18ED : ED;
 18EE : EE;
 18EF : EF;
 18F0 : F0;
 18F1 : F1;
 18F2 : F2;
 18F3 : F3;
 18F4 : F4;
 18F5 : F5;
 18F6 : F6;
 18F7 : F7;
 18F8 : F8;
 18F9 : F9;
 18FA : FA;
 18FB : FB;
 18FC : FC;
 18FD : FD;
 18FE : FE;
 18FF : FF;
 1900 : 00;
 1901 : 01;
 1902 : 02;
 1903 : 03;
 1904 : 04;
 1905 : 05;
 1906 : 06;
 1907 : 07;
 1908 : 08;
 1909 : 09;
 190A : 0A;
 190B : 0B;
 190C : 0C;
 190D : 0D;
 190E : 0E;
 190F : 0F;
 1910 : 10;
 1911 : 11;
 1912 : 12;
 1913 : 13;
 1914 : 14;
 1915 : 15;
 1916 : 16;
 1917 : 17;
 1918 : 18;
 1919 : 19;
 191A : 1A;
 191B : 1B;
 191C : 1C;
 191D : 1D;
 191E : 1E;
 191F : 1F;
 1920 : 20;
 1921 : 21;
 1922 : 22;
 1923 : 23;
 1924 : 24;
 1925 : 25;
 1926 : 26;
 1927 : 27;
 1928 : 28;
 1929 : 29;
 192A : 2A;
 192B : 2B;
 192C : 2C;
 192D : 2D;
 192E : 2E;
 192F : 2F;
 1930 : 30;
 1931 : 31;
 1932 : 32;
 1933 : 33;
 1934 : 34;
 1935 : 35;
 1936 : 36;
 1937 : 37;
 1938 : 38;
 1939 : 39;
 193A : 3A;
 193B : 3B;
 193C : 3C;
 193D : 3D;
 193E : 3E;
 193F : 3F;
 1940 : 40;
 1941 : 41;
 1942 : 42;
 1943 : 43;
 1944 : 44;
 1945 : 45;
 1946 : 46;
 1947 : 47;
 1948 : 48;
 1949 : 49;
 194A : 4A;
 194B : 4B;
 194C : 4C;
 194D : 4D;
 194E : 4E;
 194F : 4F;
 1950 : 50;
 1951 : 51;
 1952 : 52;
 1953 : 53;
 1954 : 54;
 1955 : 55;
 1956 : 56;
 1957 : 57;
 1958 : 58;
 1959 : 59;
 195A : 5A;
 195B : 5B;
 195C : 5C;
 195D : 5D;
 195E : 5E;
 195F : 5F;
 1960 : 60;
 1961 : 61;
 1962 : 62;
 1963 : 63;
 1964 : 64;
 1965 : 65;
 1966 : 66;
 1967 : 67;
 1968 : 68;
 1969 : 69;
 196A : 6A;
 196B : 6B;
 196C : 6C;
 196D : 6D;
 196E : 6E;
 196F : 6F;
 1970 : 70;
 1971 : 71;
 1972 : 72;
 1973 : 73;
 1974 : 74;
 1975 : 75;
 1976 : 76;
 1977 : 77;
 1978 : 78;
 1979 : 79;
 197A : 7A;
 197B : 7B;
 197C : 7C;
 197D : 7D;
 197E : 7E;
 197F : 7F;
 1980 : 80;
 1981 : 81;
 1982 : 82;
 1983 : 83;
 1984 : 84;
 1985 : 85;
 1986 : 86;
 1987 : 87;
 1988 : 88;
 1989 : 89;
 198A : 8A;
 198B : 8B;
 198C : 8C;
 198D : 8D;
 198E : 8E;
 198F : 8F;
 1990 : 90;
 1991 : 91;
 1992 : 92;
 1993 : 93;
 1994 : 94;
 1995 : 95;
 1996 : 96;
 1997 : 97;
 1998 : 98;
 1999 : 99;
 199A : 9A;
 199B : 9B;
 199C : 9C;
 199D : 9D;
 199E : 9E;
 199F : 9F;
 19A0 : A0;
 19A1 : A1;
 19A2 : A2;
 19A3 : A3;
 19A4 : A4;
 19A5 : A5;
 19A6 : A6;
 19A7 : A7;
 19A8 : A8;
 19A9 : A9;
 19AA : AA;
 19AB : AB;
 19AC : AC;
 19AD : AD;
 19AE : AE;
 19AF : AF;
 19B0 : B0;
 19B1 : B1;
 19B2 : B2;
 19B3 : B3;
 19B4 : B4;
 19B5 : B5;
 19B6 : B6;
 19B7 : B7;
 19B8 : B8;
 19B9 : B9;
 19BA : BA;
 19BB : BB;
 19BC : BC;
 19BD : BD;
 19BE : BE;
 19BF : BF;
 19C0 : C0;
 19C1 : C1;
 19C2 : C2;
 19C3 : C3;
 19C4 : C4;
 19C5 : C5;
 19C6 : C6;
 19C7 : C7;
 19C8 : C8;
 19C9 : C9;
 19CA : CA;
 19CB : CB;
 19CC : CC;
 19CD : CD;
 19CE : CE;
 19CF : CF;
 19D0 : D0;
 19D1 : D1;
 19D2 : D2;
 19D3 : D3;
 19D4 : D4;
 19D5 : D5;
 19D6 : D6;
 19D7 : D7;
 19D8 : D8;
 19D9 : D9;
 19DA : DA;
 19DB : DB;
 19DC : DC;
 19DD : DD;
 19DE : DE;
 19DF : DF;
 19E0 : E0;
 19E1 : E1;
 19E2 : E2;
 19E3 : E3;
 19E4 : E4;
 19E5 : E5;
 19E6 : E6;
 19E7 : E7;
 19E8 : E8;
 19E9 : E9;
 19EA : EA;
 19EB : EB;
 19EC : EC;
 19ED : ED;
 19EE : EE;
 19EF : EF;
 19F0 : F0;
 19F1 : F1;
 19F2 : F2;
 19F3 : F3;
 19F4 : F4;
 19F5 : F5;
 19F6 : F6;
 19F7 : F7;
 19F8 : F8;
 19F9 : F9;
 19FA : FA;
 19FB : FB;
 19FC : FC;
 19FD : FD;
 19FE : FE;
 19FF : FF;
 1A00 : 00;
 1A01 : 01;
 1A02 : 02;
 1A03 : 03;
 1A04 : 04;
 1A05 : 05;
 1A06 : 06;
 1A07 : 07;
 1A08 : 08;
 1A09 : 09;
 1A0A : 0A;
 1A0B : 0B;
 1A0C : 0C;
 1A0D : 0D;
 1A0E : 0E;
 1A0F : 0F;
 1A10 : 10;
 1A11 : 11;
 1A12 : 12;
 1A13 : 13;
 1A14 : 14;
 1A15 : 15;
 1A16 : 16;
 1A17 : 17;
 1A18 : 18;
 1A19 : 19;
 1A1A : 1A;
 1A1B : 1B;
 1A1C : 1C;
 1A1D : 1D;
 1A1E : 1E;
 1A1F : 1F;
 1A20 : 20;
 1A21 : 21;
 1A22 : 22;
 1A23 : 23;
 1A24 : 24;
 1A25 : 25;
 1A26 : 26;
 1A27 : 27;
 1A28 : 28;
 1A29 : 29;
 1A2A : 2A;
 1A2B : 2B;
 1A2C : 2C;
 1A2D : 2D;
 1A2E : 2E;
 1A2F : 2F;
 1A30 : 30;
 1A31 : 31;
 1A32 : 32;
 1A33 : 33;
 1A34 : 34;
 1A35 : 35;
 1A36 : 36;
 1A37 : 37;
 1A38 : 38;
 1A39 : 39;
 1A3A : 3A;
 1A3B : 3B;
 1A3C : 3C;
 1A3D : 3D;
 1A3E : 3E;
 1A3F : 3F;
 1A40 : 40;
 1A41 : 41;
 1A42 : 42;
 1A43 : 43;
 1A44 : 44;
 1A45 : 45;
 1A46 : 46;
 1A47 : 47;
 1A48 : 48;
 1A49 : 49;
 1A4A : 4A;
 1A4B : 4B;
 1A4C : 4C;
 1A4D : 4D;
 1A4E : 4E;
 1A4F : 4F;
 1A50 : 50;
 1A51 : 51;
 1A52 : 52;
 1A53 : 53;
 1A54 : 54;
 1A55 : 55;
 1A56 : 56;
 1A57 : 57;
 1A58 : 58;
 1A59 : 59;
 1A5A : 5A;
 1A5B : 5B;
 1A5C : 5C;
 1A5D : 5D;
 1A5E : 5E;
 1A5F : 5F;
 1A60 : 60;
 1A61 : 61;
 1A62 : 62;
 1A63 : 63;
 1A64 : 64;
 1A65 : 65;
 1A66 : 66;
 1A67 : 67;
 1A68 : 68;
 1A69 : 69;
 1A6A : 6A;
 1A6B : 6B;
 1A6C : 6C;
 1A6D : 6D;
 1A6E : 6E;
 1A6F : 6F;
 1A70 : 70;
 1A71 : 71;
 1A72 : 72;
 1A73 : 73;
 1A74 : 74;
 1A75 : 75;
 1A76 : 76;
 1A77 : 77;
 1A78 : 78;
 1A79 : 79;
 1A7A : 7A;
 1A7B : 7B;
 1A7C : 7C;
 1A7D : 7D;
 1A7E : 7E;
 1A7F : 7F;
 1A80 : 80;
 1A81 : 81;
 1A82 : 82;
 1A83 : 83;
 1A84 : 84;
 1A85 : 85;
 1A86 : 86;
 1A87 : 87;
 1A88 : 88;
 1A89 : 89;
 1A8A : 8A;
 1A8B : 8B;
 1A8C : 8C;
 1A8D : 8D;
 1A8E : 8E;
 1A8F : 8F;
 1A90 : 90;
 1A91 : 91;
 1A92 : 92;
 1A93 : 93;
 1A94 : 94;
 1A95 : 95;
 1A96 : 96;
 1A97 : 97;
 1A98 : 98;
 1A99 : 99;
 1A9A : 9A;
 1A9B : 9B;
 1A9C : 9C;
 1A9D : 9D;
 1A9E : 9E;
 1A9F : 9F;
 1AA0 : A0;
 1AA1 : A1;
 1AA2 : A2;
 1AA3 : A3;
 1AA4 : A4;
 1AA5 : A5;
 1AA6 : A6;
 1AA7 : A7;
 1AA8 : A8;
 1AA9 : A9;
 1AAA : AA;
 1AAB : AB;
 1AAC : AC;
 1AAD : AD;
 1AAE : AE;
 1AAF : AF;
 1AB0 : B0;
 1AB1 : B1;
 1AB2 : B2;
 1AB3 : B3;
 1AB4 : B4;
 1AB5 : B5;
 1AB6 : B6;
 1AB7 : B7;
 1AB8 : B8;
 1AB9 : B9;
 1ABA : BA;
 1ABB : BB;
 1ABC : BC;
 1ABD : BD;
 1ABE : BE;
 1ABF : BF;
 1AC0 : C0;
 1AC1 : C1;
 1AC2 : C2;
 1AC3 : C3;
 1AC4 : C4;
 1AC5 : C5;
 1AC6 : C6;
 1AC7 : C7;
 1AC8 : C8;
 1AC9 : C9;
 1ACA : CA;
 1ACB : CB;
 1ACC : CC;
 1ACD : CD;
 1ACE : CE;
 1ACF : CF;
 1AD0 : D0;
 1AD1 : D1;
 1AD2 : D2;
 1AD3 : D3;
 1AD4 : D4;
 1AD5 : D5;
 1AD6 : D6;
 1AD7 : D7;
 1AD8 : D8;
 1AD9 : D9;
 1ADA : DA;
 1ADB : DB;
 1ADC : DC;
 1ADD : DD;
 1ADE : DE;
 1ADF : DF;
 1AE0 : E0;
 1AE1 : E1;
 1AE2 : E2;
 1AE3 : E3;
 1AE4 : E4;
 1AE5 : E5;
 1AE6 : E6;
 1AE7 : E7;
 1AE8 : E8;
 1AE9 : E9;
 1AEA : EA;
 1AEB : EB;
 1AEC : EC;
 1AED : ED;
 1AEE : EE;
 1AEF : EF;
 1AF0 : F0;
 1AF1 : F1;
 1AF2 : F2;
 1AF3 : F3;
 1AF4 : F4;
 1AF5 : F5;
 1AF6 : F6;
 1AF7 : F7;
 1AF8 : F8;
 1AF9 : F9;
 1AFA : FA;
 1AFB : FB;
 1AFC : FC;
 1AFD : FD;
 1AFE : FE;
 1AFF : FF;
 1B00 : 00;
 1B01 : 01;
 1B02 : 02;
 1B03 : 03;
 1B04 : 04;
 1B05 : 05;
 1B06 : 06;
 1B07 : 07;
 1B08 : 08;
 1B09 : 09;
 1B0A : 0A;
 1B0B : 0B;
 1B0C : 0C;
 1B0D : 0D;
 1B0E : 0E;
 1B0F : 0F;
 1B10 : 10;
 1B11 : 11;
 1B12 : 12;
 1B13 : 13;
 1B14 : 14;
 1B15 : 15;
 1B16 : 16;
 1B17 : 17;
 1B18 : 18;
 1B19 : 19;
 1B1A : 1A;
 1B1B : 1B;
 1B1C : 1C;
 1B1D : 1D;
 1B1E : 1E;
 1B1F : 1F;
 1B20 : 20;
 1B21 : 21;
 1B22 : 22;
 1B23 : 23;
 1B24 : 24;
 1B25 : 25;
 1B26 : 26;
 1B27 : 27;
 1B28 : 28;
 1B29 : 29;
 1B2A : 2A;
 1B2B : 2B;
 1B2C : 2C;
 1B2D : 2D;
 1B2E : 2E;
 1B2F : 2F;
 1B30 : 30;
 1B31 : 31;
 1B32 : 32;
 1B33 : 33;
 1B34 : 34;
 1B35 : 35;
 1B36 : 36;
 1B37 : 37;
 1B38 : 38;
 1B39 : 39;
 1B3A : 3A;
 1B3B : 3B;
 1B3C : 3C;
 1B3D : 3D;
 1B3E : 3E;
 1B3F : 3F;
 1B40 : 40;
 1B41 : 41;
 1B42 : 42;
 1B43 : 43;
 1B44 : 44;
 1B45 : 45;
 1B46 : 46;
 1B47 : 47;
 1B48 : 48;
 1B49 : 49;
 1B4A : 4A;
 1B4B : 4B;
 1B4C : 4C;
 1B4D : 4D;
 1B4E : 4E;
 1B4F : 4F;
 1B50 : 50;
 1B51 : 51;
 1B52 : 52;
 1B53 : 53;
 1B54 : 54;
 1B55 : 55;
 1B56 : 56;
 1B57 : 57;
 1B58 : 58;
 1B59 : 59;
 1B5A : 5A;
 1B5B : 5B;
 1B5C : 5C;
 1B5D : 5D;
 1B5E : 5E;
 1B5F : 5F;
 1B60 : 60;
 1B61 : 61;
 1B62 : 62;
 1B63 : 63;
 1B64 : 64;
 1B65 : 65;
 1B66 : 66;
 1B67 : 67;
 1B68 : 68;
 1B69 : 69;
 1B6A : 6A;
 1B6B : 6B;
 1B6C : 6C;
 1B6D : 6D;
 1B6E : 6E;
 1B6F : 6F;
[...]
 125FE : FE;
 125FF : FF;
 12600 : 00;
 12601 : 01;
 12602 : 02;
 12603 : 03;
 12604 : 04;
 12605 : 05;
 12606 : 06;
 12607 : 07;
 12608 : 08;
 12609 : 09;
 1260A : 0A;
 1260B : 0B;
 1260C : 0C;
 1260D : 0D;
 1260E : 0E;
 1260F : 0F;
 12610 : 10;
 12611 : 11;
 12612 : 12;
 12613 : 13;
 12614 : 14;
 12615 : 15;
 12616 : 16;
 12617 : 17;
 12618 : 18;
 12619 : 19;
 1261A : 1A;
 1261B : 1B;
 1261C : 1C;
 1261D : 1D;
 1261E : 1E;
 1261F : 1F;
 12620 : 20;
 12621 : 21;
 12622 : 22;
 12623 : 23;
 12624 : 24;
 12625 : 25;
 12626 : 26;
 12627 : 27;
 12628 : 28;
 12629 : 29;
 1262A : 2A;
 1262B : 2B;
 1262C : 2C;
 1262D : 2D;
 1262E : 2E;
 1262F : 2F;
 12630 : 30;
 12631 : 31;
 12632 : 32;
 12633 : 33;
 12634 : 34;
 12635 : 35;
 12636 : 36;
 12637 : 37;
 12638 : 38;
 12639 : 39;
 1263A : 3A;
 1263B : 3B;
 1263C : 3C;
 1263D : 3D;
 1263E : 3E;
 1263F : 3F;
 12640 : 40;
 12641 : 41;
 12642 : 42;
 12643 : 43;
 12644 : 44;
 12645 : 45;
 12646 : 46;
 12647 : 47;
 12648 : 48;
 12649 : 49;
 1264A : 4A;
 1264B : 4B;
 1264C : 4C;
 1264D : 4D;
 1264E : 4E;
 1264F : 4F;
 12650 : 50;
 12651 : 51;
 12652 : 52;
 12653 : 53;
 12654 : 54;
 12655 : 55;
 12656 : 56;
 12657 : 57;
 12658 : 58;
 12659 : 59;
 1265A : 5A;
 1265B : 5B;
 1265C : 5C;
 1265D : 5D;
 1265E : 5E;
 1265F : 5F;
 12660 : 60;
 12661 : 61;
 12662 : 62;
 12663 : 63;
 12664 : 64;
 12665 : 65;
 12666 : 66;
 12667 : 67;
 12668 : 68;
 12669 : 69;
 1266A : 6A;
 1266B : 6B;
 1266C : 6C;
 1266D : 6D;
 1266E : 6E;
 1266F : 6F;
 12670 : 70;
 12671 : 71;
 12672 : 72;
 12673 : 73;
 12674 : 74;
 12675 : 75;
 12676 : 76;
 12677 : 77;
 12678 : 78;
 12679 : 79;
 1267A : 7A;
 1267B : 7B;
 1267C : 7C;
 1267D : 7D;
 1267E : 7E;
 1267F : 7F;
 12680 : 80;
 12681 : 81;
 12682 : 82;
 12683 : 83;
 12684 : 84;
 12685 : 85;
 12686 : 86;
 12687 : 87;
 12688 : 88;
 12689 : 89;
 1268A : 8A;
 1268B : 8B;
 1268C : 8C;
 1268D : 8D;
 1268E : 8E;
 1268F : 8F;
 12690 : 90;
 12691 : 91;
 12692 : 92;
 12693 : 93;
 12694 : 94;
 12695 : 95;
 12696 : 96;
 12697 : 97;
 12698 : 98;
 12699 : 99;
 1269A : 9A;
 1269B : 9B;
 1269C : 9C;
 1269D : 9D;
 1269E : 9E;
 1269F : 9F;
 126A0 : A0;
 126A1 : A1;
 126A2 : A2;
 126A3 : A3;
 126A4 : A4;
 126A5 : A5;
 126A6 : A6;
 126A7 : A7;
 126A8 : A8;
 126A9 : A9;
 126AA : AA;
 126AB : AB;
 126AC : AC;
 126AD : AD;
 126AE : AE;
 126AF : AF;
 126B0 : B0;
 126B1 : B1;
 126B2 : B2;
 126B3 : B3;
 126B4 : B4;
 126B5 : B5;
 126B6 : B6;
 126B7 : B7;
 126B8 : B8;
 126B9 : B9;
 126BA : BA;
 126BB : BB;
 126BC : BC;
 126BD : BD;
 126BE : BE;
 126BF : BF;
 126C0 : C0;
 126C1 : C1;
 126C2 : C2;
 126C3 : C3;
 126C4 : C4;
 126C5 : C5;
 126C6 : C6;
 126C7 : C7;
 126C8 : C8;
 126C9 : C9;
 126CA : CA;
 126CB : CB;
 126CC : CC;
 126CD : CD;
 126CE : CE;
 126CF : CF;
 126D0 : D0;
 126D1 : D1;
 126D2 : D2;
 126D3 : D3;
 126D4 : D4;
 126D5 : D5;
 126D6 : D6;
 126D7 : D7;
 126D8 : D8;
 126D9 : D9;
 126DA : DA;
 126DB : DB;
 126DC : DC;
 126DD : DD;
 126DE : DE;
 126DF : DF;
 126E0 : E0;
 126E1 : E1;
 126E2 : E2;
 126E3 : E3;
 126E4 : E4;
 126E5 : E5;
 126E6 : E6;
 126E7 : E7;
 126E8 : E8;
 126E9 : E9;
 126EA : EA;
 126EB : EB;
 126EC : EC;
 126ED : ED;
 126EE : EE;
 126EF : EF;
 126F0 : F0;
 126F1 : F1;
 126F2 : F2;
 126F3 : F3;
 126F4 : F4;
 126F5 : F5;
 126F6 : F6;
 126F7 : F7;
 126F8 : F8;
 126F9 : F9;
 126FA : FA;
 126FB : FB;
 126FC : FC;
 126FD : FD;
 126FE : FE;
 126FF : FF;
 12700 : 00;
 12701 : 01;
 12702 : 02;
 12703 : 03;
 12704 : 04;
 12705 : 05;
 12706 : 06;
 12707 : 07;
 12708 : 08;
 12709 : 09;
 1270A : 0A;
 1270B : 0B;
 1270C : 0C;
 1270D : 0D;
 1270E : 0E;
 1270F : 0F;
 12710 : 10;
 12711 : 11;
 12712 : 12;
 12713 : 13;
 12714 : 14;
 12715 : 15;
 12716 : 16;
 12717 : 17;
 12718 : 18;
 12719 : 19;
 1271A : 1A;
 1271B : 1B;
 1271C : 1C;
 1271D : 1D;
 1271E : 1E;
 1271F : 1F;
 12720 : 20;
 12721 : 21;
 12722 : 22;
 12723 : 23;
 12724 : 24;
 12725 : 25;
 12726 : 26;
 12727 : 27;
 12728 : 28;
 12729 : 29;
 1272A : 2A;
 1272B : 2B;
 1272C : 2C;
 1272D : 2D;
 1272E : 2E;
 1272F : 2F;
 12730 : 30;
 12731 : 31;
 12732 : 32;
 12733 : 33;
 12734 : 34;
 12735 : 35;
 12736 : 36;
 12737 : 37;
 12738 : 38;
 12739 : 39;
 1273A : 3A;
 1273B : 3B;
 1273C : 3C;
 1273D : 3D;
 1273E : 3E;
 1273F : 3F;
 12740 : 40;
 12741 : 41;
 12742 : 42;
 12743 : 43;
 12744 : 44;
 12745 : 45;
 12746 : 46;
 12747 : 47;
 12748 : 48;
 12749 : 49;
 1274A : 4A;
 1274B : 4B;
 1274C : 4C;
 1274D : 4D;
 1274E : 4E;
 1274F : 4F;
 12750 : 50;
 12751 : 51;
 12752 : 52;
 12753 : 53;
 12754 : 54;
 12755 : 55;
 12756 : 56;
 12757 : 57;
 12758 : 58;
 12759 : 59;
 1275A : 5A;
 1275B : 5B;
 1275C : 5C;
 1275D : 5D;
 1275E : 5E;
 1275F : 5F;
 12760 : 60;
 12761 : 61;
 12762 : 62;
 12763 : 63;
 12764 : 64;
 12765 : 65;
 12766 : 66;
 12767 : 67;
 12768 : 68;
 12769 : 69;
 1276A : 6A;
 1276B : 6B;
 1276C : 6C;
 1276D : 6D;
 1276E : 6E;
 1276F : 6F;
 12770 : 70;
 12771 : 71;
 12772 : 72;
 12773 : 73;
 12774 : 74;
 12775 : 75;
 12776 : 76;
 12777 : 77;
 12778 : 78;
 12779 : 79;
 1277A : 7A;
 1277B : 7B;
 1277C : 7C;
 1277D : 7D;
 1277E : 7E;
 1277F : 7F;
 12780 : 80;
 12781 : 81;
 12782 : 82;
 12783 : 83;
 12784 : 84;
 12785 : 85;
 12786 : 86;
 12787 : 87;
 12788 : 88;
 12789 : 89;
 1278A : 8A;
 1278B : 8B;
 1278C : 8C;
 1278D : 8D;
 1278E : 8E;
 1278F : 8F;
 12790 : 90;
 12791 : 91;
 12792 : 92;
 12793 : 93;
 12794 : 94;
 12795 : 95;
 12796 : 96;
 12797 : 97;
 12798 : 98;
 12799 : 99;
 1279A : 9A;
 1279B : 9B;
 1279C : 9C;
 1279D : 9D;
 1279E : 9E;
 1279F : 9F;
 127A0 : A0;
 127A1 : A1;
 127A2 : A2;
 127A3 : A3;
 127A4 : A4;
 127A5 : A5;
 127A6 : A6;
 127A7 : A7;
 127A8 : A8;
 127A9 : A9;
 127AA : AA;
 127AB : AB;
 127AC : AC;
 127AD : AD;
 127AE : AE;
 127AF : AF;
 127B0 : B0;
 127B1 : B1;
 127B2 : B2;
 127B3 : B3;
 127B4 : B4;
 127B5 : B5;
 127B6 : B6;
 127B7 : B7;
 127B8 : B8;
 127B9 : B9;
 127BA : BA;
 127BB : BB;
 127BC : BC;
 127BD : BD;
 127BE : BE;
 127BF : BF;
 127C0 : C0;
 127C1 : C1;
 127C2 : C2;
 127C3 : C3;
 127C4 : C4;
 127C5 : C5;
 127C6 : C6;
 127C7 : C7;
 127C8 : C8;
 127C9 : C9;
 127CA : CA;
 127CB : CB;
 127CC : CC;
 127CD : CD;
 127CE : CE;
 127CF : CF;
 127D0 : D0;
 127D1 : D1;
 127D2 : D2;
 127D3 : D3;
 127D4 : D4;
 127D5 : D5;
 127D6 : D6;
 127D7 : D7;
 127D8 : D8;
 127D9 : D9;
 127DA : DA;
 127DB : DB;
 127DC : DC;
 127DD : DD;
 127DE : DE;
 127DF : DF;
 127E0 : E0;
 127E1 : E1;
 127E2 : E2;
 127E3 : E3;
 127E4 : E4;
 127E5 : E5;
 127E6 : E6;
 127E7 : E7;
 127E8 : E8;
 127E9 : E9;
 127EA : EA;
 127EB : EB;
 127EC : EC;
 127ED : ED;
 127EE : EE;
 127EF : EF;
 127F0 : F0;
 127F1 : F1;
 127F2 : F2;
 127F3 : F3;
 127F4 : F4;
 127F5 : F5;
 127F6 : F6;
 127F7 : F7;
 127F8 : F8;
 127F9 : F9;
 127FA : FA;
 127FB : FB;
 127FC : FC;
 127FD : FD;
 127FE : FE;
 127FF : FF;
 12800 : 00;
 12801 : 01;
 12802 : 02;
 12803 : 03;
 12804 : 04;
 12805 : 05;
 12806 : 06;
 12807 : 07;
 12808 : 08;
 12809 : 09;
 1280A : 0A;
 1280B : 0B;
 1280C : 0C;
 1280D : 0D;
 1280E : 0E;
 1280F : 0F;
 12810 : 10;
 12811 : 11;
 12812 : 12;
 12813 : 13;
 12814 : 14;
 12815 : 15;
 12816 : 16;
 12817 : 17;
 12818 : 18;
 12819 : 19;
 1281A : 1A;
 1281B : 1B;
 1281C : 1C;
 1281D : 1D;
 1281E : 1E;
 1281F : 1F;
 12820 : 20;
 12821 : 21;
 12822 : 22;
 12823 : 23;
 12824 : 24;
 12825 : 25;
 12826 : 26;
 12827 : 27;
 12828 : 28;
 12829 : 29;
 1282A : 2A;
 1282B : 2B;
 1282C : 2C;
 1282D : 2D;
 1282E : 2E;
 1282F : 2F;
 12830 : 30;
 12831 : 31;
 12832 : 32;
 12833 : 33;
 12834 : 34;
 12835 : 35;
 12836 : 36;
 12837 : 37;
 12838 : 38;
 12839 : 39;
 1283A : 3A;
 1283B : 3B;
 1283C : 3C;
 1283D : 3D;
 1283E : 3E;
 1283F : 3F;
 12840 : 40;
 12841 : 41;
 12842 : 42;
 12843 : 43;
 12844 : 44;
 12845 : 45;
 12846 : 46;
 12847 : 47;
 12848 : 48;
 12849 : 49;
 1284A : 4A;
 1284B : 4B;
 1284C : 4C;
 1284D : 4D;
 1284E : 4E;
 1284F : 4F;
 12850 : 50;
 12851 : 51;
 12852 : 52;
 12853 : 53;
 12854 : 54;
 12855 : 55;
 12856 : 56;
 12857 : 57;
 12858 : 58;
 12859 : 59;
 1285A : 5A;
 1285B : 5B;
 1285C : 5C;
 1285D : 5D;
 1285E : 5E;
 1285F : 5F;
 12860 : 60;
 12861 : 61;
 12862 : 62;
 12863 : 63;
 12864 : 64;
 12865 : 65;
 12866 : 66;
 12867 : 67;
 12868 : 68;
 12869 : 69;
 1286A : 6A;
 1286B : 6B;
 1286C : 6C;
 1286D : 6D;
 1286E : 6E;
 1286F : 6F;
 12870 : 70;
 12871 : 71;
 12872 : 72;
 12873 : 73;
 12874 : 74;
 12875 : 75;
 12876 : 76;
 12877 : 77;
 12878 : 78;
 12879 : 79;
 1287A : 7A;
 1287B : 7B;
 1287C : 7C;
 1287D : 7D;
 1287E : 7E;
 1287F : 7F;
 12880 : 80;
 12881 : 81;
 12882 : 82;
 12883 : 83;
 12884 : 84;
 12885 : 85;
 12886 : 86;
 12887 : 87;
 12888 : 88;
 12889 : 89;
 1288A : 8A;
 1288B : 8B;
 1288C : 8C;
 1288D : 8D;
 1288E : 8E;
 1288F : 8F;
 12890 : 90;
 12891 : 91;
 12892 : 92;
 12893 : 93;
 12894 : 94;
 12895 : 95;
 12896 : 96;
 12897 : 97;
 12898 : 98;
 12899 : 99;
 1289A : 9A;
 1289B : 9B;
 1289C : 9C;
 1289D : 9D;
 1289E : 9E;
 1289F : 9F;
 128A0 : A0;
 128A1 : A1;
 128A2 : A2;
 128A3 : A3;
 128A4 : A4;
 128A5 : A5;
 128A6 : A6;
 128A7 : A7;
 128A8 : A8;
 128A9 : A9;
 128AA : AA;
 128AB : AB;
 128AC : AC;
 128AD : AD;
 128AE : AE;
 128AF : AF;
 128B0 : B0;
 128B1 : B1;
 128B2 : B2;
 128B3 : B3;
 128B4 : B4;
 128B5 : B5;
 128B6 : B6;
 128B7 : B7;
 128B8 : B8;
 128B9 : B9;
 128BA : BA;
 128BB : BB;
 128BC : BC;
 128BD : BD;
 128BE : BE;
 128BF : BF;
 128C0 : C0;
 128C1 : C1;
 128C2 : C2;
 128C3 : C3;
 128C4 : C4;
 128C5 : C5;
 128C6 : C6;
 128C7 : C7;
 128C8 : C8;
 128C9 : C9;
 128CA : CA;
 128CB : CB;
 128CC : CC;
 128CD : CD;
 128CE : CE;
 128CF : CF;
 128D0 : D0;
 128D1 : D1;
 128D2 : D2;
 128D3 : D3;
 128D4 : D4;
 128D5 : D5;
 128D6 : D6;
 128D7 : D7;
 128D8 : D8;
 128D9 : D9;
 128DA : DA;
 128DB : DB;
 128DC : DC;
 128DD : DD;
 128DE : DE;
 128DF : DF;
 128E0 : E0;
 128E1 : E1;
 128E2 : E2;
 128E3 : E3;
 128E4 : E4;
 128E5 : E5;
 128E6 : E6;
 128E7 : E7;
 128E8 : E8;
 128E9 : E9;
 128EA : EA;
 128EB : EB;
 128EC : EC;
 128ED : ED;
 128EE : EE;
 128EF : EF;
 128F0 : F0;
 128F1 : F1;
 128F2 : F2;
 128F3 : F3;
 128F4 : F4;
 128F5 : F5;
 128F6 : F6;
 128F7 : F7;
 128F8 : F8;
 128F9 : F9;
 128FA : FA;
 128FB : FB;
 128FC : FC;
 128FD : FD;
 128FE : FE;
 128FF : FF;
 12900 : 00;
 12901 : 01;
 12902 : 02;
 12903 : 03;
 12904 : 04;
 12905 : 05;
 12906 : 06;
 12907 : 07;
 12908 : 08;
 12909 : 09;
 1290A : 0A;
 1290B : 0B;
 1290C : 0C;
 1290D : 0D;
 1290E : 0E;
 1290F : 0F;
 12910 : 10;
 12911 : 11;
 12912 : 12;
 12913 : 13;
 12914 : 14;
 12915 : 15;
 12916 : 16;
 12917 : 17;
 12918 : 18;
 12919 : 19;
 1291A : 1A;
 1291B : 1B;
 1291C : 1C;
 1291D : 1D;
 1291E : 1E;
 1291F : 1F;
 12920 : 20;
 12921 : 21;
 12922 : 22;
 12923 : 23;
 12924 : 24;
 12925 : 25;
 12926 : 26;
 12927 : 27;
 12928 : 28;
 12929 : 29;
 1292A : 2A;
 1292B : 2B;
 1292C : 2C;
 1292D : 2D;
 1292E : 2E;
 1292F : 2F;
 12930 : 30;
 12931 : 31;
 12932 : 32;
 12933 : 33;
 12934 : 34;
 12935 : 35;
 12936 : 36;
 12937 : 37;
 12938 : 38;
 12939 : 39;
 1293A : 3A;
 1293B : 3B;
 1293C : 3C;
 1293D : 3D;
 1293E : 3E;
 1293F : 3F;
 12940 : 40;
 12941 : 41;
 12942 : 42;
 12943 : 43;
 12944 : 44;
 12945 : 45;
 12946 : 46;
 12947 : 47;
 12948 : 48;
 12949 : 49;
 1294A : 4A;
 1294B : 4B;
 1294C : 4C;
 1294D : 4D;
 1294E : 4E;
 1294F : 4F;
 12950 : 50;
 12951 : 51;
 12952 : 52;
 12953 : 53;
 12954 : 54;
 12955 : 55;
 12956 : 56;
 12957 : 57;
 12958 : 58;
 12959 : 59;
 1295A : 5A;
 1295B : 5B;
 1295C : 5C;
 1295D : 5D;
 1295E : 5E;
 1295F : 5F;
 12960 : 60;
 12961 : 61;
 12962 : 62;
 12963 : 63;
 12964 : 64;
 12965 : 65;
 12966 : 66;
 12967 : 67;
 12968 : 68;
 12969 : 69;
 1296A : 6A;
 1296B : 6B;
 1296C : 6C;
 1296D : 6D;
 1296E : 6E;
 1296F : 6F;
 12970 : 70;
 12971 : 71;
 12972 : 72;
 12973 : 73;
 12974 : 74;
 12975 : 75;
 12976 : 76;
 12977 : 77;
 12978 : 78;
 12979 : 79;
 1297A : 7A;
 1297B : 7B;
 1297C : 7C;
 1297D : 7D;
 1297E : 7E;
 1297F : 7F;
 12980 : 80;
 12981 : 81;
 12982 : 82;
 12983 : 83;
 12984 : 84;
 12985 : 85;
 12986 : 86;
 12987 : 87;
 12988 : 88;
 12989 : 89;
 1298A : 8A;
 1298B : 8B;
 1298C : 8C;
 1298D : 8D;
 1298E : 8E;
 1298F : 8F;
 12990 : 90;
 12991 : 91;
 12992 : 92;
 12993 : 93;
 12994 : 94;
 12995 : 95;
 12996 : 96;
 12997 : 97;
 12998 : 98;
 12999 : 99;
 1299A : 9A;
 1299B : 9B;
 1299C : 9C;
 1299D : 9D;
 1299E : 9E;
 1299F : 9F;
 129A0 : A0;
 129A1 : A1;
 129A2 : A2;
 129A3 : A3;
 129A4 : A4;
 129A5 : A5;
 129A6 : A6;
 129A7 : A7;
 129A8 : A8;
 129A9 : A9;
 129AA : AA;
 129AB : AB;
 129AC : AC;
 129AD : AD;
 129AE : AE;
 129AF : AF;
 129B0 : B0;
 129B1 : B1;
 129B2 : B2;
 129B3 : B3;
 129B4 : B4;
 129B5 : B5;
 129B6 : B6;
 129B7 : B7;
 129B8 : B8;
 129B9 : B9;
 129BA : BA;
 129BB : BB;
 129BC : BC;
 129BD : BD;
 129BE : BE;
 129BF : BF;
 129C0 : C0;
 129C1 : C1;
 129C2 : C2;
 129C3 : C3;
 129C4 : C4;
 129C5 : C5;
 129C6 : C6;
 129C7 : C7;
 129C8 : C8;
 129C9 : C9;
 129CA : CA;
 129CB : CB;
 129CC : CC;
 129CD : CD;
 129CE : CE;
 129CF : CF;
 129D0 : D0;
 129D1 : D1;
 129D2 : D2;
 129D3 : D3;
 129D4 : D4;
 129D5 : D5;
 129D6 : D6;
 129D7 : D7;
 129D8 : D8;
 129D9 : D9;
 129DA : DA;
 129DB : DB;
 129DC : DC;
 129DD : DD;
 129DE : DE;
 129DF : DF;
 129E0 : E0;
 129E1 : E1;
 129E2 : E2;
 129E3 : E3;
 129E4 : E4;
 129E5 : E5;
 129E6 : E6;
 129E7 : E7;
 129E8 : E8;
 129E9 : E9;
 129EA : EA;
 129EB : EB;
 129EC : EC;
 129ED : ED;
 129EE : EE;
 129EF : EF;
 129F0 : F0;
 129F1 : F1;
 129F2 : F2;
 129F3 : F3;
 129F4 : F4;
 129F5 : F5;
 129F6 : F6;
 129F7 : F7;
 129F8 : F8;
 129F9 : F9;
 129FA : FA;
 129FB : FB;
 129FC : FC;
 129FD : FD;
 129FE : FE;
 129FF : FF;
 12A00 : 00;
 12A01 : 01;
 12A02 : 02;
 12A03 : 03;
 12A04 : 04;
 12A05 : 05;
 12A06 : 06;
 12A07 : 07;
 12A08 : 08;
 12A09 : 09;
 12A0A : 0A;
 12A0B : 0B;
 12A0C : 0C;
 12A0D : 0D;
 12A0E : 0E;
 12A0F : 0F;
 12A10 : 10;
 12A11 : 11;
 12A12 : 12;
 12A13 : 13;
 12A14 : 14;
 12A15 : 15;
 12A16 : 16;
 12A17 : 17;
 12A18 : 18;
 12A19 : 19;
 12A1A : 1A;
 12A1B : 1B;
 12A1C : 1C;
 12A1D : 1D;
 12A1E : 1E;
 12A1F : 1F;
 12A20 : 20;
 12A21 : 21;
 12A22 : 22;
 12A23 : 23;
 12A24 : 24;
 12A25 : 25;
 12A26 : 26;
 12A27 : 27;
 12A28 : 28;
 12A29 : 29;
 12A2A : 2A;
 12A2B : 2B;
 12A2C : 2C;
 12A2D : 2D;
 12A2E : 2E;
 12A2F : 2F;
 12A30 : 30;
 12A31 : 31;
 12A32 : 32;
 12A33 : 33;
 12A34 : 34;
 12A35 : 35;
 12A36 : 36;
 12A37 : 37;
 12A38 : 38;
 12A39 : 39;
 12A3A : 3A;
 12A3B : 3B;
 12A3C : 3C;
 12A3D : 3D;
 12A3E : 3E;
 12A3F : 3F;
 12A40 : 40;
 12A41 : 41;
 12A42 : 42;
 12A43 : 43;
 12A44 : 44;
 12A45 : 45;
 12A46 : 46;
 12A47 : 47;
 12A48 : 48;
 12A49 : 49;
 12A4A : 4A;
 12A4B : 4B;
 12A4C : 4C;
 12A4D : 4D;
 12A4E : 4E;
 12A4F : 4F;
 12A50 : 50;
 12A51 : 51;
 12A52 : 52;
 12A53 : 53;
 12A54 : 54;
 12A55 : 55;
 12A56 : 56;
 12A57 : 57;
 12A58 : 58;
 12A59 : 59;
 12A5A : 5A;
 12A5B : 5B;
 12A5C : 5C;
 12A5D : 5D;
 12A5E : 5E;
 12A5F : 5F;
 12A60 : 60;
 12A61 : 61;
 12A62 : 62;
 12A63 : 63;
 12A64 : 64;
 12A65 : 65;
 12A66 : 66;
 12A67 : 67;
 12A68 : 68;
 12A69 : 69;
 12A6A : 6A;
 12A6B : 6B;
 12A6C : 6C;
 12A6D : 6D;
 12A6E : 6E;
 12A6F : 6F;
 12A70 : 70;
 12A71 : 71;
 12A72 : 72;
 12A73 : 73;
 12A74 : 74;
 12A75 : 75;
 12A76 : 76;
 12A77 : 77;
 12A78 : 78;
 12A79 : 79;
 12A7A : 7A;
 12A7B : 7B;
 12A7C : 7C;
 12A7D : 7D;
 12A7E : 7E;
 12A7F : 7F;
 12A80 : 80;
 12A81 : 81;
 12A82 : 82;
 12A83 : 83;
 12A84 : 84;
 12A85 : 85;
 12A86 : 86;
 12A87 : 87;
 12A88 : 88;
 12A89 : 89;
 12A8A : 8A;
 12A8B : 8B;
 12A8C : 8C;
 12A8D : 8D;
 12A8E : 8E;
 12A8F : 8F;
 12A90 : 90;
 12A91 : 91;
 12A92 : 92;
 12A93 : 93;
 12A94 : 94;
 12A95 : 95;
 12A96 : 96;
 12A97 : 97;
 12A98 : 98;
 12A99 : 99;
 12A9A : 9A;
 12A9B : 9B;
 12A9C : 9C;
 12A9D : 9D;
 12A9E : 9E;
 12A9F : 9F;
 12AA0 : A0;
 12AA1 : A1;
 12AA2 : A2;
 12AA3 : A3;
 12AA4 : A4;
 12AA5 : A5;
 12AA6 : A6;
 12AA7 : A7;
 12AA8 : A8;
 12AA9 : A9;
 12AAA : AA;
 12AAB : AB;
 12AAC : AC;
 12AAD : AD;
 12AAE : AE;
 12AAF : AF;
 12AB0 : B0;
 12AB1 : B1;
 12AB2 : B2;
 12AB3 : B3;
 12AB4 : B4;
 12AB5 : B5;
 12AB6 : B6;
 12AB7 : B7;
 12AB8 : B8;
 12AB9 : B9;
 12ABA : BA;
 12ABB : BB;
 12ABC : BC;
 12ABD : BD;
 12ABE : BE;
 12ABF : BF;
 12AC0 : C0;
 12AC1 : C1;
 12AC2 : C2;
 12AC3 : C3;
 12AC4 : C4;
 12AC5 : C5;
 12AC6 : C6;
 12AC7 : C7;
 12AC8 : C8;
 12AC9 : C9;
 12ACA : CA;
 12ACB : CB;
 12ACC : CC;
 12ACD : CD;
 12ACE : CE;
 12ACF : CF;
 12AD0 : D0;
 12AD1 : D1;
 12AD2 : D2;
 12AD3 : D3;
 12AD4 : D4;
 12AD5 : D5;
 12AD6 : D6;
 12AD7 : D7;
 12AD8 : D8;
 12AD9 : D9;
 12ADA : DA;
 12ADB : DB;
 12ADC : DC;
 12ADD : DD;
 12ADE : DE;
 12ADF : DF;
 12AE0 : E0;
 12AE1 : E1;
 12AE2 : E2;
 12AE3 : E3;
 12AE4 : E4;
 12AE5 : E5;
 12AE6 : E6;
 12AE7 : E7;
 12AE8 : E8;
 12AE9 : E9;
 12AEA : EA;
 12AEB : EB;
 12AEC : EC;
 12AED : ED;
 12AEE : EE;
 12AEF : EF;
 12AF0 : F0;
 12AF1 : F1;
 12AF2 : F2;
 12AF3 : F3;
 12AF4 : F4;
 12AF5 : F5;
 12AF6 : F6;
 12AF7 : F7;
 12AF8 : F8;
 12AF9 : F9;
 12AFA : FA;
 12AFB : FB;
 12AFC : FC;
 12AFD : FD;
 12AFE : FE;
 12AFF : FF;
 12B00 : 00;
 12B01 : 01;
 12B02 : 02;
 12B03 : 03;
 12B04 : 04;
 12B05 : 05;
 12B06 : 06;
 12B07 : 07;
 12B08 : 08;
 12B09 : 09;
 12B0A : 0A;
 12B0B : 0B;
 12B0C : 0C;
 12B0D : 0D;
 12B0E : 0E;
 12B0F : 0F;
 12B10 : 10;
 12B11 : 11;
 12B12 : 12;
 12B13 : 13;
 12B14 : 14;
 12B15 : 15;
 12B16 : 16;
 12B17 : 17;
 12B18 : 18;
 12B19 : 19;
 12B1A : 1A;
 12B1B : 1B;
 12B1C : 1C;
 12B1D : 1D;
 12B1E : 1E;
 12B1F : 1F;
 12B20 : 20;
 12B21 : 21;
 12B22 : 22;
 12B23 : 23;
 12B24 : 24;
 12B25 : 25;
 12B26 : 26;
 12B27 : 27;
 12B28 : 28;
 12B29 : 29;
 12B2A : 2A;
 12B2B : 2B;
 12B2C : 2C;
 12B2D : 2D;
 12B2E : 2E;
 12B2F : 2F;
 12B30 : 30;
 12B31 : 31;
 12B32 : 32;
 12B33 : 33;
 12B34 : 34;
 12B35 : 35;
 12B36 : 36;
 12B37 : 37;
 12B38 : 38;
 12B39 : 39;
 12B3A : 3A;
 12B3B : 3B;
 12B3C : 3C;
 12B3D : 3D;
 12B3E : 3E;
 12B3F : 3F;
 12B40 : 40;
 12B41 : 41;
 12B42 : 42;
 12B43 : 43;
 12B44 : 44;
 12B45 : 45;
 12B46 : 46;
 12B47 : 47;
 12B48 : 48;
 12B49 : 49;
 12B4A : 4A;
 12B4B : 4B;
 12B4C : 4C;
 12B4D : 4D;
 12B4E : 4E;
 12B4F : 4F;
 12B50 : 50;
 12B51 : 51;
 12B52 : 52;
 12B53 : 53;
 12B54 : 54;
 12B55 : 55;
 12B56 : 56;
 12B57 : 57;
 12B58 : 58;
 12B59 : 59;
 12B5A : 5A;
 12B5B : 5B;
 12B5C : 5C;
 12B5D : 5D;
 12B5E : 5E;
 12B5F : 5F;
 12B60 : 60;
 12B61 : 61;
 12B62 : 62;
 12B63 : 63;
 12B64 : 64;
 12B65 : 65;
 12B66 : 66;
 12B67 : 67;
 12B68 : 68;
 12B69 : 69;
 12B6A : 6A;
 12B6B : 6B;
 12B6C : 6C;
 12B6D : 6D;
 12B6E : 6E;
 12B6F : 6F;
 12B70 : 70;
 12B71 : 71;
 12B72 : 72;
 12B73 : 73;
 12B74 : 74;
 12B75 : 75;
 12B76 : 76;
 12B77 : 77;
 12B78 : 78;
 12B79 : 79;
 12B7A : 7A;
 12B7B : 7B;
 12B7C : 7C;
 12B7D : 7D;
 12B7E : 7E;
 12B7F : 7F;
 12B80 : 80;
 12B81 : 81;
 12B82 : 82;
 12B83 : 83;
 12B84 : 84;
 12B85 : 85;
 12B86 : 86;
 12B87 : 87;
 12B88 : 88;
 12B89 : 89;
 12B8A : 8A;
 12B8B : 8B;
 12B8C : 8C;
 12B8D : 8D;
 12B8E : 8E;
 12B8F : 8F;
 12B90 : 90;
 12B91 : 91;
 12B92 : 92;
 12B93 : 93;
 12B94 : 94;
 12B95 : 95;
 12B96 : 96;
 12B97 : 97;
 12B98 : 98;
 12B99 : 99;
 12B9A : 9A;
 12B9B : 9B;
 12B9C : 9C;
 12B9D : 9D;
 12B9E : 9E;
 12B9F : 9F;
 12BA0 : A0;
 12BA1 : A1;
 12BA2 : A2;
 12BA3 : A3;
 12BA4 : A4;
 12BA5 : A5;
 12BA6 : A6;
 12BA7 : A7;
 12BA8 : A8;
 12BA9 : A9;
 12BAA : AA;
 12BAB : AB;
 12BAC : AC;
 12BAD : AD;
 12BAE : AE;
 12BAF : AF;
 12BB0 : B0;
 12BB1 : B1;
 12BB2 : B2;
 12BB3 : B3;
 12BB4 : B4;
 12BB5 : B5;
 12BB6 : B6;
 12BB7 : B7;
 12BB8 : B8;
 12BB9 : B9;
 12BBA : BA;
 12BBB : BB;
 12BBC : BC;
 12BBD : BD;
 12BBE : BE;
 12BBF : BF;
 12BC0 : C0;
 12BC1 : C1;
 12BC2 : C2;
 12BC3 : C3;
 12BC4 : C4;
 12BC5 : C5;
 12BC6 : C6;
 12BC7 : C7;
 12BC8 : C8;
 12BC9 : C9;
 12BCA : CA;
 12BCB : CB;
 12BCC : CC;
 12BCD : CD;
 12BCE : CE;
 12BCF : CF;
 12BD0 : D0;
 12BD1 : D1;
 12BD2 : D2;
 12BD3 : D3;
 12BD4 : D4;
 12BD5 : D5;
 12BD6 : D6;
 12BD7 : D7;
 12BD8 : D8;
 12BD9 : D9;
 12BDA : DA;
 12BDB : DB;
 12BDC : DC;
 12BDD : DD;
 12BDE : DE;
 12BDF : DF;
 12BE0 : E0;
 12BE1 : E1;
 12BE2 : E2;
 12BE3 : E3;
 12BE4 : E4;
 12BE5 : E5;
 12BE6 : E6;
 12BE7 : E7;
 12BE8 : E8;
 12BE9 : E9;
 12BEA : EA;
 12BEB : EB;
 12BEC : EC;
 12BED : ED;
 12BEE : EE;
 12BEF : EF;
 12BF0 : F0;
 12BF1 : F1;
 12BF2 : F2;
 12BF3 : F3;
 12BF4 : F4;
 12BF5 : F5;
 12BF6 : F6;
 12BF7 : F7;
 12BF8 : F8;
 12BF9 : F9;
 12BFA : FA;
 12BFB : FB;
 12BFC : FC;
 12BFD : FD;
 12BFE : FE;
 12BFF : FF;
END;
