WIDTH=8;
DEPTH=76800;

ADDRESS_RADIX=HEX;
DATA_RADIX=HEX;

CONTENT BEGIN
 0 : 7F;
 1 : 7F;
 2 : 80;
 3 : 82;
 4 : 83;
 5 : 85;
 6 : 85;
 7 : 85;
 8 : 85;
 9 : 86;
 A : 87;
 B : 88;
 C : 88;
 D : 89;
 E : 89;
 F : 8A;
 10 : 8B;
 11 : 8D;
 12 : 92;
 13 : 93;
 14 : 8F;
 15 : 91;
 16 : 9A;
 17 : A7;
 18 : A4;
 19 : A4;
 1A : 9B;
 1B : 97;
 1C : 9E;
 1D : A3;
 1E : A6;
 1F : 9F;
 20 : 9C;
 21 : 98;
 22 : 96;
 23 : 9A;
 24 : 9F;
 25 : A1;
 26 : 9F;
 27 : 9F;
 28 : 9F;
 29 : 9F;
 2A : A1;
 2B : A3;
 2C : A3;
 2D : A4;
 2E : A4;
 2F : A6;
 30 : A7;
 31 : A8;
 32 : A9;
 33 : A8;
 34 : A8;
 35 : A7;
 36 : A8;
 37 : A9;
 38 : A9;
 39 : AB;
 3A : AB;
 3B : AB;
 3C : AB;
 3D : AB;
 3E : AB;
 3F : AE;
 40 : AF;
 41 : AF;
 42 : AF;
 43 : B8;
 44 : C5;
 45 : C0;
 46 : AE;
 47 : B2;
 48 : B4;
 49 : B5;
 4A : B4;
 4B : B3;
 4C : B2;
 4D : B4;
 4E : B6;
 4F : B4;
 50 : B4;
 51 : B9;
 52 : B9;
 53 : B4;
 54 : B6;
 55 : BB;
 56 : B8;
 57 : BA;
 58 : BA;
 59 : BA;
 5A : BA;
 5B : BA;
 5C : BB;
 5D : BB;
 5E : BB;
 5F : BB;
 60 : BB;
 61 : BC;
 62 : BC;
 63 : BC;
 64 : BC;
 65 : BB;
 66 : BB;
 67 : BD;
 68 : BD;
 69 : BE;
 6A : C0;
 6B : BF;
 6C : BC;
 6D : BD;
 6E : BE;
 6F : C1;
 70 : C0;
 71 : BF;
 72 : BF;
 73 : C0;
 74 : C1;
 75 : C0;
 76 : BF;
 77 : BF;
 78 : BE;
 79 : BF;
 7A : C0;
 7B : C1;
 7C : BF;
 7D : BF;
 7E : C1;
 7F : C2;
 80 : C3;
 81 : C4;
 82 : C5;
 83 : C8;
 84 : C8;
 85 : C9;
 86 : C8;
 87 : CA;
 88 : CA;
 89 : CA;
 8A : CB;
 8B : C9;
 8C : CA;
 8D : C9;
 8E : C9;
 8F : C8;
 90 : CD;
 91 : C7;
 92 : CD;
 93 : CF;
 94 : C9;
 95 : CA;
 96 : C8;
 97 : C9;
 98 : C7;
 99 : C5;
 9A : C5;
 9B : C4;
 9C : C2;
 9D : C2;
 9E : C4;
 9F : C1;
 A0 : BF;
 A1 : BE;
 A2 : BC;
 A3 : BB;
 A4 : BA;
 A5 : B7;
 A6 : 8D;
 A7 : 6E;
 A8 : 6B;
 A9 : 67;
 AA : 87;
 AB : 88;
 AC : 8D;
 AD : 73;
 AE : 68;
 AF : 89;
 B0 : 7C;
 B1 : 97;
 B2 : BA;
 B3 : B9;
 B4 : C2;
 B5 : C6;
 B6 : BF;
 B7 : C4;
 B8 : C3;
 B9 : C2;
 BA : C2;
 BB : C2;
 BC : C2;
 BD : C2;
 BE : C2;
 BF : C2;
 C0 : C2;
 C1 : C3;
 C2 : C4;
 C3 : C4;
 C4 : C4;
 C5 : C4;
 C6 : C3;
 C7 : C4;
 C8 : C4;
 C9 : C4;
 CA : C3;
 CB : C2;
 CC : C2;
 CD : C3;
 CE : C4;
 CF : C2;
 D0 : C3;
 D1 : C4;
 D2 : C3;
 D3 : C2;
 D4 : C2;
 D5 : C3;
 D6 : C3;
 D7 : C5;
 D8 : C2;
 D9 : C0;
 DA : C0;
 DB : C1;
 DC : C2;
 DD : C0;
 DE : BF;
 DF : C2;
 E0 : C1;
 E1 : C0;
 E2 : BF;
 E3 : BF;
 E4 : BE;
 E5 : BD;
 E6 : BD;
 E7 : BE;
 E8 : BD;
 E9 : BB;
 EA : BA;
 EB : BB;
 EC : BA;
 ED : BB;
 EE : BC;
 EF : B9;
 F0 : C2;
 F1 : CD;
 F2 : D3;
 F3 : D4;
 F4 : D2;
 F5 : D0;
 F6 : D2;
 F7 : D0;
 F8 : D0;
 F9 : CF;
 FA : D0;
 FB : D0;
 FC : CF;
 FD : CE;
 FE : CD;
 FF : CE;
 100 : CC;
 101 : CB;
 102 : C8;
 103 : C7;
 104 : C4;
 105 : C0;
 106 : C5;
 107 : C4;
 108 : C4;
 109 : C4;
 10A : C2;
 10B : C1;
 10C : BE;
 10D : BD;
 10E : BC;
 10F : BC;
 110 : BB;
 111 : BA;
 112 : B9;
 113 : B8;
 114 : B7;
 115 : B5;
 116 : B4;
 117 : B4;
 118 : B1;
 119 : AE;
 11A : A1;
 11B : 72;
 11C : 51;
 11D : 5E;
 11E : 5B;
 11F : 5A;
 120 : 5F;
 121 : 60;
 122 : 63;
 123 : 68;
 124 : 64;
 125 : 79;
 126 : A4;
 127 : A3;
 128 : A4;
 129 : A5;
 12A : A6;
 12B : A5;
 12C : A3;
 12D : A2;
 12E : A4;
 12F : A4;
 130 : A3;
 131 : A1;
 132 : A0;
 133 : A0;
 134 : 9F;
 135 : 9D;
 136 : 9C;
 137 : 9A;
 138 : 9A;
 139 : 9A;
 13A : 99;
 13B : 98;
 13C : 98;
 13D : 97;
 13E : 96;
 13F : 80;
 140 : 81;
 141 : 80;
 142 : 81;
 143 : 82;
 144 : 84;
 145 : 85;
 146 : 86;
 147 : 87;
 148 : 87;
 149 : 88;
 14A : 88;
 14B : 89;
 14C : 8A;
 14D : 8A;
 14E : 8B;
 14F : 8C;
 150 : 8E;
 151 : 8F;
 152 : 92;
 153 : 93;
 154 : 90;
 155 : 91;
 156 : 99;
 157 : 93;
 158 : 91;
 159 : 96;
 15A : 97;
 15B : 9A;
 15C : A0;
 15D : 9A;
 15E : 92;
 15F : 9A;
 160 : 9B;
 161 : 9B;
 162 : 9A;
 163 : 9B;
 164 : 9E;
 165 : 9F;
 166 : 9F;
 167 : A0;
 168 : A0;
 169 : A0;
 16A : A3;
 16B : A3;
 16C : A5;
 16D : A5;
 16E : A5;
 16F : A6;
 170 : A7;
 171 : A8;
 172 : A9;
 173 : A8;
 174 : A8;
 175 : A9;
 176 : A9;
 177 : A9;
 178 : AA;
 179 : AA;
 17A : AB;
 17B : AC;
 17C : AC;
 17D : AD;
 17E : AD;
 17F : AD;
 180 : AE;
 181 : AE;
 182 : B4;
 183 : BF;
 184 : C6;
 185 : BF;
 186 : B2;
 187 : B4;
 188 : B5;
 189 : B7;
 18A : B7;
 18B : B6;
 18C : B5;
 18D : B5;
 18E : B6;
 18F : BC;
 190 : B5;
 191 : B6;
 192 : B8;
 193 : B6;
 194 : B9;
 195 : BC;
 196 : BA;
 197 : BA;
 198 : BA;
 199 : BB;
 19A : BB;
 19B : BB;
 19C : BC;
 19D : BC;
 19E : BC;
 19F : BB;
 1A0 : BA;
 1A1 : BA;
 1A2 : B9;
 1A3 : B9;
 1A4 : BA;
 1A5 : BA;
 1A6 : BB;
 1A7 : BC;
 1A8 : BC;
 1A9 : BE;
 1AA : BF;
 1AB : BF;
 1AC : BE;
 1AD : BE;
 1AE : C0;
 1AF : BF;
 1B0 : BF;
 1B1 : BF;
 1B2 : BF;
 1B3 : C1;
 1B4 : C1;
 1B5 : C1;
 1B6 : C0;
 1B7 : C0;
 1B8 : BF;
 1B9 : C0;
 1BA : C1;
 1BB : C1;
 1BC : C0;
 1BD : C0;
 1BE : C2;
 1BF : C1;
 1C0 : C2;
 1C1 : C3;
 1C2 : C4;
 1C3 : C5;
 1C4 : C6;
 1C5 : C7;
 1C6 : C7;
 1C7 : C8;
 1C8 : C8;
 1C9 : C8;
 1CA : C8;
 1CB : C9;
 1CC : C9;
 1CD : C8;
 1CE : C8;
 1CF : CA;
 1D0 : C9;
 1D1 : C2;
 1D2 : C6;
 1D3 : C7;
 1D4 : C4;
 1D5 : C7;
 1D6 : C5;
 1D7 : C5;
 1D8 : C4;
 1D9 : C3;
 1DA : C4;
 1DB : C4;
 1DC : C2;
 1DD : C1;
 1DE : C2;
 1DF : C3;
 1E0 : C1;
 1E1 : C0;
 1E2 : BE;
 1E3 : BB;
 1E4 : B8;
 1E5 : B4;
 1E6 : 89;
 1E7 : 73;
 1E8 : 6E;
 1E9 : 5D;
 1EA : 84;
 1EB : 7D;
 1EC : 77;
 1ED : 84;
 1EE : 7E;
 1EF : 85;
 1F0 : 80;
 1F1 : A0;
 1F2 : BF;
 1F3 : BB;
 1F4 : C0;
 1F5 : C3;
 1F6 : C1;
 1F7 : C5;
 1F8 : C3;
 1F9 : C3;
 1FA : C3;
 1FB : C3;
 1FC : C3;
 1FD : C4;
 1FE : C4;
 1FF : C3;
 200 : C4;
 201 : C4;
 202 : C5;
 203 : C5;
 204 : C5;
 205 : C5;
 206 : C5;
 207 : C3;
 208 : C4;
 209 : C5;
 20A : C4;
 20B : C4;
 20C : C5;
 20D : C5;
 20E : C5;
 20F : C1;
 210 : C6;
 211 : C8;
 212 : C5;
 213 : C5;
 214 : C7;
 215 : C6;
 216 : C2;
 217 : C3;
 218 : C3;
 219 : C1;
 21A : C1;
 21B : C3;
 21C : C4;
 21D : C5;
 21E : C4;
 21F : C2;
 220 : C3;
 221 : C2;
 222 : C1;
 223 : C0;
 224 : C0;
 225 : C1;
 226 : C1;
 227 : BE;
 228 : BE;
 229 : BD;
 22A : BC;
 22B : BD;
 22C : BD;
 22D : BD;
 22E : BE;
 22F : BE;
 230 : C1;
 231 : C2;
 232 : C2;
 233 : C2;
 234 : C3;
 235 : C6;
 236 : C9;
 237 : C6;
 238 : C5;
 239 : C4;
 23A : C3;
 23B : C2;
 23C : C1;
 23D : BF;
 23E : BE;
 23F : BE;
 240 : BB;
 241 : BA;
 242 : B6;
 243 : B5;
 244 : B4;
 245 : B1;
 246 : B7;
 247 : BC;
 248 : BD;
 249 : BF;
 24A : BD;
 24B : BD;
 24C : BD;
 24D : BF;
 24E : C0;
 24F : BC;
 250 : BB;
 251 : B9;
 252 : B8;
 253 : B8;
 254 : B8;
 255 : B6;
 256 : B5;
 257 : B3;
 258 : B0;
 259 : AD;
 25A : A4;
 25B : 72;
 25C : 4F;
 25D : 5E;
 25E : 61;
 25F : 5B;
 260 : 5F;
 261 : 5E;
 262 : 62;
 263 : 67;
 264 : 64;
 265 : 71;
 266 : 9F;
 267 : A4;
 268 : A4;
 269 : A5;
 26A : A6;
 26B : A5;
 26C : A2;
 26D : A3;
 26E : A3;
 26F : A3;
 270 : A2;
 271 : A1;
 272 : A0;
 273 : A0;
 274 : 9F;
 275 : 9E;
 276 : 9D;
 277 : 9C;
 278 : 9B;
 279 : 9B;
 27A : 9B;
 27B : 99;
 27C : 97;
 27D : 95;
 27E : 94;
 27F : 82;
 280 : 81;
 281 : 80;
 282 : 81;
 283 : 83;
 284 : 84;
 285 : 86;
 286 : 86;
 287 : 88;
 288 : 88;
 289 : 88;
 28A : 89;
 28B : 89;
 28C : 8A;
 28D : 8B;
 28E : 8C;
 28F : 8E;
 290 : 90;
 291 : 91;
 292 : 91;
 293 : 92;
 294 : 91;
 295 : 92;
 296 : 97;
 297 : 97;
 298 : 93;
 299 : 95;
 29A : 96;
 29B : 99;
 29C : A1;
 29D : A3;
 29E : A4;
 29F : 9A;
 2A0 : 9C;
 2A1 : 9E;
 2A2 : 9F;
 2A3 : 9E;
 2A4 : 9F;
 2A5 : 9F;
 2A6 : 9F;
 2A7 : A2;
 2A8 : A2;
 2A9 : A3;
 2AA : A4;
 2AB : A6;
 2AC : A7;
 2AD : A6;
 2AE : A5;
 2AF : A7;
 2B0 : A7;
 2B1 : A8;
 2B2 : A8;
 2B3 : A9;
 2B4 : A8;
 2B5 : A9;
 2B6 : AA;
 2B7 : A9;
 2B8 : A9;
 2B9 : AA;
 2BA : AC;
 2BB : AD;
 2BC : AE;
 2BD : AF;
 2BE : AF;
 2BF : B3;
 2C0 : B1;
 2C1 : B1;
 2C2 : BA;
 2C3 : C7;
 2C4 : C6;
 2C5 : BB;
 2C6 : B5;
 2C7 : B6;
 2C8 : B6;
 2C9 : B6;
 2CA : B6;
 2CB : B7;
 2CC : B7;
 2CD : B7;
 2CE : B6;
 2CF : B9;
 2D0 : BA;
 2D1 : BA;
 2D2 : B6;
 2D3 : B3;
 2D4 : B8;
 2D5 : BD;
 2D6 : BA;
 2D7 : BA;
 2D8 : BB;
 2D9 : BC;
 2DA : BD;
 2DB : BC;
 2DC : BD;
 2DD : BC;
 2DE : BC;
 2DF : BC;
 2E0 : BC;
 2E1 : BB;
 2E2 : BB;
 2E3 : BB;
 2E4 : BB;
 2E5 : BC;
 2E6 : BC;
 2E7 : BC;
 2E8 : BC;
 2E9 : BD;
 2EA : BE;
 2EB : BF;
 2EC : BF;
 2ED : BF;
 2EE : C1;
 2EF : C0;
 2F0 : BF;
 2F1 : BF;
 2F2 : C1;
 2F3 : C2;
 2F4 : C2;
 2F5 : C2;
 2F6 : C1;
 2F7 : C2;
 2F8 : C1;
 2F9 : C1;
 2FA : C2;
 2FB : C2;
 2FC : C1;
 2FD : C2;
 2FE : C2;
 2FF : C2;
 300 : C3;
 301 : C3;
 302 : C5;
 303 : C6;
 304 : C6;
 305 : C7;
 306 : C6;
 307 : C9;
 308 : C8;
 309 : C7;
 30A : C8;
 30B : C7;
 30C : C7;
 30D : C6;
 30E : C5;
 30F : C6;
 310 : C8;
 311 : C8;
 312 : CC;
 313 : C8;
 314 : C3;
 315 : C5;
 316 : C2;
 317 : C2;
 318 : C2;
 319 : C3;
 31A : C4;
 31B : C4;
 31C : C3;
 31D : C2;
 31E : C2;
 31F : C3;
 320 : C2;
 321 : C2;
 322 : C0;
 323 : BC;
 324 : B9;
 325 : B3;
 326 : 88;
 327 : 66;
 328 : 67;
 329 : 63;
 32A : 87;
 32B : 7C;
 32C : 6E;
 32D : 8C;
 32E : 84;
 32F : 7E;
 330 : 82;
 331 : A0;
 332 : C0;
 333 : BD;
 334 : C0;
 335 : C2;
 336 : C6;
 337 : C4;
 338 : C4;
 339 : C4;
 33A : C4;
 33B : C5;
 33C : C5;
 33D : C5;
 33E : C5;
 33F : C6;
 340 : C5;
 341 : C5;
 342 : C5;
 343 : C5;
 344 : C5;
 345 : C6;
 346 : C6;
 347 : C6;
 348 : C6;
 349 : C7;
 34A : C8;
 34B : C8;
 34C : C7;
 34D : C7;
 34E : C6;
 34F : C4;
 350 : C4;
 351 : C4;
 352 : C3;
 353 : C4;
 354 : C5;
 355 : C6;
 356 : C6;
 357 : C5;
 358 : C5;
 359 : C4;
 35A : C3;
 35B : C2;
 35C : C2;
 35D : C2;
 35E : C2;
 35F : C3;
 360 : C3;
 361 : C3;
 362 : C3;
 363 : C1;
 364 : C1;
 365 : C1;
 366 : C3;
 367 : C0;
 368 : C1;
 369 : BF;
 36A : BF;
 36B : BF;
 36C : BF;
 36D : BF;
 36E : C0;
 36F : C0;
 370 : BF;
 371 : BD;
 372 : BD;
 373 : BD;
 374 : BE;
 375 : BE;
 376 : BE;
 377 : BC;
 378 : BB;
 379 : BA;
 37A : B9;
 37B : B9;
 37C : B8;
 37D : B7;
 37E : B6;
 37F : B7;
 380 : B4;
 381 : B3;
 382 : B2;
 383 : B2;
 384 : AF;
 385 : AC;
 386 : B2;
 387 : B0;
 388 : B2;
 389 : B2;
 38A : B1;
 38B : AF;
 38C : B1;
 38D : B5;
 38E : B9;
 38F : B5;
 390 : B4;
 391 : B4;
 392 : B5;
 393 : B6;
 394 : B7;
 395 : B7;
 396 : B6;
 397 : B3;
 398 : B0;
 399 : AD;
 39A : A2;
 39B : 6C;
 39C : 46;
 39D : 58;
 39E : 5E;
 39F : 5B;
 3A0 : 5B;
 3A1 : 56;
 3A2 : 58;
 3A3 : 5C;
 3A4 : 5E;
 3A5 : 62;
 3A6 : 98;
 3A7 : A4;
 3A8 : A3;
 3A9 : A1;
 3AA : A3;
 3AB : A3;
 3AC : A3;
 3AD : A2;
 3AE : A2;
 3AF : A1;
 3B0 : A1;
 3B1 : 9F;
 3B2 : 9F;
 3B3 : 9F;
 3B4 : 9E;
 3B5 : 9D;
 3B6 : 9C;
 3B7 : 9C;
 3B8 : 9C;
 3B9 : 9B;
 3BA : 9A;
 3BB : 98;
 3BC : 97;
 3BD : 95;
 3BE : 94;
 3BF : 82;
 3C0 : 81;
 3C1 : 81;
 3C2 : 82;
 3C3 : 83;
 3C4 : 85;
 3C5 : 85;
 3C6 : 85;
 3C7 : 88;
 3C8 : 88;
 3C9 : 88;
 3CA : 88;
 3CB : 88;
 3CC : 8A;
 3CD : 8B;
 3CE : 8C;
 3CF : 8E;
 3D0 : 92;
 3D1 : 91;
 3D2 : 8F;
 3D3 : 91;
 3D4 : 92;
 3D5 : 93;
 3D6 : 96;
 3D7 : 96;
 3D8 : 94;
 3D9 : 9A;
 3DA : 9B;
 3DB : 9B;
 3DC : 9F;
 3DD : A3;
 3DE : A9;
 3DF : 9A;
 3E0 : 9E;
 3E1 : A1;
 3E2 : A1;
 3E3 : A0;
 3E4 : 9F;
 3E5 : A2;
 3E6 : A2;
 3E7 : A3;
 3E8 : A3;
 3E9 : A4;
 3EA : A6;
 3EB : A7;
 3EC : A8;
 3ED : A7;
 3EE : A6;
 3EF : A7;
 3F0 : A8;
 3F1 : A8;
 3F2 : A8;
 3F3 : A8;
 3F4 : A9;
 3F5 : AA;
 3F6 : AB;
 3F7 : AB;
 3F8 : AB;
 3F9 : AB;
 3FA : AC;
 3FB : AE;
 3FC : AF;
 3FD : B0;
 3FE : B1;
 3FF : B0;
 400 : B0;
 401 : AE;
 402 : B7;
 403 : C7;
 404 : C6;
 405 : B8;
 406 : B5;
 407 : B8;
 408 : B6;
 409 : B5;
 40A : B5;
 40B : B6;
 40C : B7;
 40D : B8;
 40E : B9;
 40F : B8;
 410 : B9;
 411 : BA;
 412 : B9;
 413 : B7;
 414 : B8;
 415 : B9;
 416 : BA;
 417 : BA;
 418 : BB;
 419 : BC;
 41A : BD;
 41B : BD;
 41C : BD;
 41D : BD;
 41E : BC;
 41F : BB;
 420 : BC;
 421 : BE;
 422 : BF;
 423 : BF;
 424 : BE;
 425 : BD;
 426 : BB;
 427 : BD;
 428 : BC;
 429 : BC;
 42A : BE;
 42B : BF;
 42C : BF;
 42D : C0;
 42E : C2;
 42F : C3;
 430 : C3;
 431 : C2;
 432 : C1;
 433 : C1;
 434 : C2;
 435 : C2;
 436 : C1;
 437 : C1;
 438 : C2;
 439 : C3;
 43A : C3;
 43B : C2;
 43C : C2;
 43D : C2;
 43E : C2;
 43F : C3;
 440 : C3;
 441 : C3;
 442 : C4;
 443 : C4;
 444 : C5;
 445 : C5;
 446 : C6;
 447 : C8;
 448 : C6;
 449 : C5;
 44A : C5;
 44B : C5;
 44C : C4;
 44D : C3;
 44E : C2;
 44F : C2;
 450 : C0;
 451 : C1;
 452 : C3;
 453 : C0;
 454 : C0;
 455 : C4;
 456 : C4;
 457 : C1;
 458 : C1;
 459 : C2;
 45A : C4;
 45B : C4;
 45C : C4;
 45D : C3;
 45E : C3;
 45F : C2;
 460 : C2;
 461 : C2;
 462 : C0;
 463 : BC;
 464 : BA;
 465 : B4;
 466 : 8B;
 467 : 69;
 468 : 5E;
 469 : 6A;
 46A : 7D;
 46B : 85;
 46C : 87;
 46D : 8F;
 46E : 84;
 46F : 7F;
 470 : 84;
 471 : 9E;
 472 : BC;
 473 : C0;
 474 : C4;
 475 : C2;
 476 : C7;
 477 : C5;
 478 : C5;
 479 : C5;
 47A : C5;
 47B : C5;
 47C : C6;
 47D : C6;
 47E : C6;
 47F : C7;
 480 : C7;
 481 : C6;
 482 : C6;
 483 : C6;
 484 : C6;
 485 : C7;
 486 : C7;
 487 : C6;
 488 : C5;
 489 : C4;
 48A : C5;
 48B : C5;
 48C : C5;
 48D : C5;
 48E : C6;
 48F : CC;
 490 : C8;
 491 : C6;
 492 : C8;
 493 : C8;
 494 : C4;
 495 : C4;
 496 : C6;
 497 : C4;
 498 : C4;
 499 : C5;
 49A : C5;
 49B : C5;
 49C : C4;
 49D : C6;
 49E : C7;
 49F : C5;
 4A0 : C4;
 4A1 : C3;
 4A2 : C2;
 4A3 : C1;
 4A4 : C1;
 4A5 : C2;
 4A6 : C2;
 4A7 : C2;
 4A8 : C2;
 4A9 : C1;
 4AA : C1;
 4AB : C1;
 4AC : C1;
 4AD : C1;
 4AE : C3;
 4AF : C1;
 4B0 : C0;
 4B1 : C0;
 4B2 : C0;
 4B3 : C1;
 4B4 : BF;
 4B5 : BC;
 4B6 : BA;
 4B7 : BB;
 4B8 : BB;
 4B9 : B9;
 4BA : B8;
 4BB : B8;
 4BC : B8;
 4BD : B7;
 4BE : B6;
 4BF : B4;
 4C0 : B2;
 4C1 : B4;
 4C2 : B4;
 4C3 : B4;
 4C4 : B2;
 4C5 : AC;
 4C6 : B1;
 4C7 : B1;
 4C8 : B1;
 4C9 : B1;
 4CA : AE;
 4CB : AC;
 4CC : AD;
 4CD : B0;
 4CE : B3;
 4CF : AF;
 4D0 : AD;
 4D1 : AC;
 4D2 : AD;
 4D3 : B0;
 4D4 : B2;
 4D5 : B2;
 4D6 : B0;
 4D7 : AC;
 4D8 : A9;
 4D9 : A8;
 4DA : A1;
 4DB : 6E;
 4DC : 4A;
 4DD : 5F;
 4DE : 68;
 4DF : 59;
 4E0 : 59;
 4E1 : 56;
 4E2 : 59;
 4E3 : 5C;
 4E4 : 5F;
 4E5 : 5C;
 4E6 : 98;
 4E7 : A0;
 4E8 : 9E;
 4E9 : 9D;
 4EA : 9F;
 4EB : A1;
 4EC : A1;
 4ED : A1;
 4EE : A2;
 4EF : A0;
 4F0 : A0;
 4F1 : 9F;
 4F2 : A0;
 4F3 : A0;
 4F4 : 9E;
 4F5 : 9E;
 4F6 : 9D;
 4F7 : 9C;
 4F8 : 9C;
 4F9 : 9A;
 4FA : 9A;
 4FB : 98;
 4FC : 96;
 4FD : 95;
 4FE : 94;
 4FF : 82;
 500 : 81;
 501 : 81;
 502 : 81;
 503 : 83;
 504 : 85;
 505 : 85;
 506 : 86;
 507 : 88;
 508 : 88;
 509 : 88;
 50A : 88;
 50B : 89;
 50C : 8A;
 50D : 8C;
 50E : 8D;
 50F : 8E;
 510 : 91;
 511 : 91;
 512 : 8F;
 513 : 92;
 514 : 94;
 515 : 95;
 516 : 97;
 517 : 95;
 518 : 93;
 519 : 9A;
 51A : 9B;
 51B : 99;
 51C : 99;
 51D : 98;
 51E : 9B;
 51F : 9D;
 520 : 9D;
 521 : 9E;
 522 : 9F;
 523 : 9F;
 524 : A0;
 525 : A2;
 526 : A4;
 527 : A4;
 528 : A4;
 529 : A5;
 52A : A7;
 52B : A8;
 52C : A8;
 52D : A7;
 52E : A6;
 52F : A7;
 530 : A8;
 531 : A8;
 532 : A8;
 533 : A9;
 534 : AA;
 535 : AB;
 536 : AC;
 537 : AD;
 538 : AD;
 539 : AD;
 53A : AE;
 53B : AE;
 53C : AF;
 53D : B0;
 53E : B1;
 53F : AF;
 540 : B3;
 541 : AF;
 542 : B4;
 543 : C4;
 544 : C8;
 545 : BD;
 546 : B6;
 547 : B7;
 548 : B6;
 549 : B6;
 54A : B6;
 54B : B7;
 54C : B8;
 54D : B9;
 54E : B9;
 54F : BC;
 550 : B7;
 551 : BB;
 552 : C8;
 553 : CD;
 554 : C8;
 555 : C1;
 556 : C1;
 557 : BB;
 558 : BB;
 559 : BC;
 55A : BD;
 55B : BD;
 55C : BD;
 55D : BC;
 55E : BB;
 55F : BA;
 560 : BB;
 561 : BD;
 562 : BE;
 563 : BE;
 564 : BD;
 565 : BC;
 566 : BB;
 567 : BE;
 568 : BD;
 569 : BD;
 56A : BF;
 56B : BF;
 56C : BF;
 56D : BF;
 56E : C1;
 56F : C2;
 570 : C2;
 571 : C2;
 572 : C2;
 573 : C1;
 574 : C1;
 575 : C1;
 576 : C2;
 577 : C2;
 578 : C2;
 579 : C3;
 57A : C3;
 57B : C2;
 57C : C2;
 57D : C2;
 57E : C2;
 57F : C2;
 580 : C2;
 581 : C2;
 582 : C2;
 583 : C2;
 584 : C2;
 585 : C2;
 586 : C2;
 587 : C3;
 588 : C2;
 589 : C1;
 58A : C1;
 58B : C3;
 58C : C2;
 58D : C1;
 58E : C0;
 58F : C7;
 590 : C2;
 591 : C2;
 592 : C2;
 593 : C4;
 594 : C3;
 595 : C1;
 596 : BE;
 597 : C1;
 598 : C1;
 599 : C1;
 59A : C1;
 59B : C2;
 59C : C3;
 59D : C3;
 59E : C3;
 59F : C2;
 5A0 : C2;
 5A1 : C2;
 5A2 : C1;
 5A3 : BD;
 5A4 : BA;
 5A5 : B5;
 5A6 : 8B;
 5A7 : 61;
 5A8 : 57;
 5A9 : 6F;
 5AA : 75;
 5AB : 85;
 5AC : 87;
 5AD : 81;
 5AE : 83;
 5AF : 7F;
 5B0 : 86;
 5B1 : A1;
 5B2 : BC;
 5B3 : C1;
 5B4 : C5;
 5B5 : C1;
 5B6 : C5;
 5B7 : C6;
 5B8 : C6;
 5B9 : C6;
 5BA : C7;
 5BB : C6;
 5BC : C7;
 5BD : C6;
 5BE : C6;
 5BF : C7;
 5C0 : C7;
 5C1 : C6;
 5C2 : C5;
 5C3 : C5;
 5C4 : C7;
 5C5 : C8;
 5C6 : C8;
 5C7 : C9;
 5C8 : C7;
 5C9 : C6;
 5CA : C8;
 5CB : C8;
 5CC : C8;
 5CD : C7;
 5CE : C9;
 5CF : C4;
 5D0 : C5;
 5D1 : C6;
 5D2 : C8;
 5D3 : C8;
 5D4 : C7;
 5D5 : C6;
 5D6 : C6;
 5D7 : C7;
 5D8 : C8;
 5D9 : C7;
 5DA : C7;
 5DB : C7;
 5DC : C6;
 5DD : C5;
 5DE : C5;
 5DF : C6;
 5E0 : C5;
 5E1 : C4;
 5E2 : C4;
 5E3 : C5;
 5E4 : C4;
 5E5 : C4;
 5E6 : C4;
 5E7 : C3;
 5E8 : C4;
 5E9 : C3;
 5EA : C3;
 5EB : C2;
 5EC : C2;
 5ED : C3;
 5EE : C4;
 5EF : C3;
 5F0 : C2;
 5F1 : C1;
 5F2 : C0;
 5F3 : BF;
 5F4 : BF;
 5F5 : BF;
 5F6 : BF;
 5F7 : BF;
 5F8 : BE;
 5F9 : BB;
 5FA : BA;
 5FB : B9;
 5FC : B7;
 5FD : B6;
 5FE : B5;
 5FF : B5;
 600 : B3;
 601 : B5;
 602 : B5;
 603 : B6;
 604 : B4;
 605 : AE;
 606 : B2;
 607 : B6;
 608 : B5;
 609 : B3;
 60A : B1;
 60B : B0;
 60C : AF;
 60D : AF;
 60E : AF;
 60F : B0;
 610 : AD;
 611 : AA;
 612 : AB;
 613 : AA;
 614 : AA;
 615 : A9;
 616 : A8;
 617 : A8;
 618 : A3;
 619 : A3;
 61A : 9D;
 61B : 6E;
 61C : 4C;
 61D : 5F;
 61E : 68;
 61F : 63;
 620 : 66;
 621 : 64;
 622 : 67;
 623 : 65;
 624 : 62;
 625 : 5B;
 626 : 95;
 627 : 9C;
 628 : 99;
 629 : 99;
 62A : 9B;
 62B : 9E;
 62C : A0;
 62D : A0;
 62E : A0;
 62F : A1;
 630 : A1;
 631 : A1;
 632 : A1;
 633 : A1;
 634 : 9F;
 635 : 9F;
 636 : 9F;
 637 : 9C;
 638 : 9C;
 639 : 9B;
 63A : 99;
 63B : 98;
 63C : 96;
 63D : 94;
 63E : 93;
 63F : 81;
 640 : 81;
 641 : 81;
 642 : 81;
 643 : 84;
 644 : 86;
 645 : 87;
 646 : 87;
 647 : 89;
 648 : 89;
 649 : 89;
 64A : 8A;
 64B : 8B;
 64C : 8D;
 64D : 8E;
 64E : 8F;
 64F : 8E;
 650 : 91;
 651 : 90;
 652 : 90;
 653 : 94;
 654 : 95;
 655 : 95;
 656 : 97;
 657 : 9A;
 658 : 9A;
 659 : 9F;
 65A : 9A;
 65B : 94;
 65C : 97;
 65D : 9A;
 65E : 9F;
 65F : A1;
 660 : 9F;
 661 : 9F;
 662 : 9F;
 663 : A0;
 664 : A2;
 665 : A4;
 666 : A6;
 667 : A5;
 668 : A5;
 669 : A6;
 66A : A7;
 66B : A8;
 66C : A8;
 66D : A8;
 66E : A6;
 66F : A8;
 670 : A9;
 671 : A9;
 672 : AA;
 673 : AA;
 674 : AB;
 675 : AC;
 676 : AD;
 677 : AE;
 678 : AE;
 679 : AF;
 67A : AF;
 67B : B0;
 67C : B0;
 67D : B0;
 67E : B1;
 67F : C3;
 680 : C9;
 681 : C5;
 682 : C0;
 683 : C8;
 684 : CE;
 685 : C6;
 686 : BB;
 687 : B3;
 688 : B4;
 689 : B5;
 68A : B7;
 68B : B8;
 68C : B8;
 68D : B7;
 68E : B7;
 68F : B8;
 690 : C5;
 691 : CD;
 692 : D4;
 693 : D8;
 694 : D3;
 695 : C1;
 696 : B1;
 697 : BC;
 698 : BC;
 699 : BD;
 69A : BD;
 69B : BD;
 69C : BD;
 69D : BD;
 69E : BD;
 69F : BC;
 6A0 : BC;
 6A1 : BC;
 6A2 : BC;
 6A3 : BC;
 6A4 : BC;
 6A5 : BD;
 6A6 : BD;
 6A7 : BF;
 6A8 : BE;
 6A9 : BE;
 6AA : BF;
 6AB : C0;
 6AC : BF;
 6AD : BE;
 6AE : BF;
 6AF : BF;
 6B0 : C0;
 6B1 : C0;
 6B2 : C1;
 6B3 : C1;
 6B4 : C1;
 6B5 : C2;
 6B6 : C3;
 6B7 : C2;
 6B8 : C2;
 6B9 : C3;
 6BA : C2;
 6BB : C1;
 6BC : C2;
 6BD : C2;
 6BE : C0;
 6BF : C3;
 6C0 : C2;
 6C1 : C2;
 6C2 : C2;
 6C3 : C2;
 6C4 : C1;
 6C5 : C1;
 6C6 : C1;
 6C7 : C1;
 6C8 : C1;
 6C9 : C1;
 6CA : C2;
 6CB : C2;
 6CC : C2;
 6CD : C3;
 6CE : C3;
 6CF : BF;
 6D0 : C0;
 6D1 : C3;
 6D2 : C1;
 6D3 : C3;
 6D4 : C2;
 6D5 : BF;
 6D6 : C5;
 6D7 : C3;
 6D8 : C3;
 6D9 : C4;
 6DA : C4;
 6DB : C4;
 6DC : C5;
 6DD : C5;
 6DE : C5;
 6DF : C4;
 6E0 : C3;
 6E1 : C2;
 6E2 : C1;
 6E3 : BD;
 6E4 : BA;
 6E5 : B3;
 6E6 : 88;
 6E7 : 71;
 6E8 : 6B;
 6E9 : 7D;
 6EA : 85;
 6EB : 8E;
 6EC : 84;
 6ED : 85;
 6EE : 8E;
 6EF : 77;
 6F0 : 84;
 6F1 : A3;
 6F2 : C0;
 6F3 : C0;
 6F4 : C3;
 6F5 : C1;
 6F6 : C6;
 6F7 : C8;
 6F8 : C7;
 6F9 : C7;
 6FA : C8;
 6FB : C8;
 6FC : C9;
 6FD : C8;
 6FE : C8;
 6FF : C8;
 700 : C8;
 701 : C8;
 702 : C7;
 703 : C6;
 704 : C7;
 705 : C8;
 706 : C8;
 707 : CC;
 708 : CB;
 709 : CB;
 70A : CC;
 70B : CB;
 70C : C8;
 70D : C7;
 70E : C9;
 70F : CA;
 710 : CF;
 711 : CE;
 712 : C4;
 713 : C2;
 714 : C6;
 715 : C8;
 716 : C3;
 717 : C7;
 718 : C6;
 719 : C5;
 71A : C7;
 71B : C8;
 71C : C9;
 71D : C7;
 71E : C4;
 71F : C4;
 720 : C4;
 721 : C4;
 722 : C5;
 723 : C7;
 724 : C6;
 725 : C6;
 726 : C5;
 727 : C4;
 728 : C4;
 729 : C4;
 72A : C4;
 72B : C4;
 72C : C5;
 72D : C5;
 72E : C5;
 72F : C4;
 730 : C4;
 731 : C3;
 732 : C1;
 733 : BF;
 734 : BE;
 735 : BF;
 736 : C0;
 737 : BF;
 738 : BE;
 739 : BD;
 73A : BC;
 73B : BB;
 73C : BB;
 73D : B9;
 73E : B9;
 73F : BC;
 740 : B8;
 741 : B8;
 742 : B6;
 743 : B7;
 744 : B5;
 745 : B1;
 746 : B6;
 747 : B4;
 748 : B3;
 749 : B2;
 74A : B2;
 74B : B3;
 74C : B1;
 74D : B0;
 74E : AF;
 74F : B0;
 750 : AF;
 751 : AD;
 752 : AC;
 753 : AB;
 754 : AA;
 755 : A9;
 756 : A8;
 757 : AC;
 758 : A5;
 759 : A3;
 75A : 9E;
 75B : 6F;
 75C : 4C;
 75D : 5C;
 75E : 61;
 75F : 53;
 760 : 57;
 761 : 57;
 762 : 5A;
 763 : 5D;
 764 : 5D;
 765 : 63;
 766 : 9C;
 767 : 9A;
 768 : 98;
 769 : 97;
 76A : 99;
 76B : 9C;
 76C : 9C;
 76D : 9D;
 76E : 9D;
 76F : 9E;
 770 : 9F;
 771 : 9F;
 772 : 9E;
 773 : 9E;
 774 : 9D;
 775 : 9C;
 776 : 9C;
 777 : 9C;
 778 : 9B;
 779 : 9A;
 77A : 98;
 77B : 96;
 77C : 94;
 77D : 92;
 77E : 91;
 77F : 83;
 780 : 82;
 781 : 81;
 782 : 83;
 783 : 85;
 784 : 87;
 785 : 88;
 786 : 89;
 787 : 8A;
 788 : 8A;
 789 : 8B;
 78A : 8C;
 78B : 8E;
 78C : 8F;
 78D : 90;
 78E : 91;
 78F : 8F;
 790 : 91;
 791 : 91;
 792 : 92;
 793 : 96;
 794 : 96;
 795 : 96;
 796 : 98;
 797 : 94;
 798 : 98;
 799 : A1;
 79A : 9C;
 79B : 97;
 79C : 9A;
 79D : 9D;
 79E : 9F;
 79F : A2;
 7A0 : A1;
 7A1 : A1;
 7A2 : A2;
 7A3 : A2;
 7A4 : A3;
 7A5 : A5;
 7A6 : A8;
 7A7 : A6;
 7A8 : A6;
 7A9 : A6;
 7AA : A7;
 7AB : A8;
 7AC : A8;
 7AD : A8;
 7AE : A8;
 7AF : A9;
 7B0 : AA;
 7B1 : AB;
 7B2 : AC;
 7B3 : AC;
 7B4 : AC;
 7B5 : AD;
 7B6 : AE;
 7B7 : AF;
 7B8 : AF;
 7B9 : B0;
 7BA : B1;
 7BB : B1;
 7BC : B2;
 7BD : B2;
 7BE : B1;
 7BF : B9;
 7C0 : C1;
 7C1 : C1;
 7C2 : B6;
 7C3 : B5;
 7C4 : BC;
 7C5 : B8;
 7C6 : AD;
 7C7 : B4;
 7C8 : B4;
 7C9 : B7;
 7CA : B7;
 7CB : B7;
 7CC : B9;
 7CD : BA;
 7CE : BB;
 7CF : D0;
 7D0 : D8;
 7D1 : CA;
 7D2 : B3;
 7D3 : B1;
 7D4 : BD;
 7D5 : C0;
 7D6 : BB;
 7D7 : BD;
 7D8 : BD;
 7D9 : BD;
 7DA : BD;
 7DB : BD;
 7DC : BD;
 7DD : BE;
 7DE : BE;
 7DF : BE;
 7E0 : BD;
 7E1 : BD;
 7E2 : BD;
 7E3 : BD;
 7E4 : BE;
 7E5 : BF;
 7E6 : BF;
 7E7 : BF;
 7E8 : BE;
 7E9 : BE;
 7EA : C0;
 7EB : C1;
 7EC : BF;
 7ED : BE;
 7EE : BD;
 7EF : BD;
 7F0 : BE;
 7F1 : C0;
 7F2 : C0;
 7F3 : C0;
 7F4 : C1;
 7F5 : C3;
 7F6 : C4;
 7F7 : C2;
 7F8 : C3;
 7F9 : C3;
 7FA : C2;
 7FB : C1;
 7FC : C2;
 7FD : C1;
 7FE : C0;
 7FF : C3;
 800 : C4;
 801 : C4;
 802 : C3;
 803 : C3;
 804 : C2;
 805 : C1;
 806 : C2;
 807 : BF;
 808 : C0;
 809 : C1;
 80A : C2;
 80B : C1;
 80C : C2;
 80D : C3;
 80E : C5;
 80F : C3;
 810 : C5;
 811 : C5;
 812 : C1;
 813 : C7;
 814 : C6;
 815 : C1;
 816 : CE;
 817 : C2;
 818 : C3;
 819 : C4;
 81A : C4;
 81B : C6;
 81C : C7;
 81D : C7;
 81E : C6;
 81F : C5;
 820 : C4;
 821 : C3;
 822 : C1;
 823 : BE;
 824 : B9;
 825 : B0;
 826 : 82;
 827 : 7D;
 828 : 67;
 829 : 6C;
 82A : 76;
 82B : 83;
 82C : 83;
 82D : 89;
 82E : 89;
 82F : 76;
 830 : 85;
 831 : A7;
 832 : C3;
 833 : BE;
 834 : C2;
 835 : C3;
 836 : C8;
 837 : C9;
 838 : C9;
 839 : C9;
 83A : CA;
 83B : CA;
 83C : C9;
 83D : C8;
 83E : C8;
 83F : C8;
 840 : C8;
 841 : C8;
 842 : C8;
 843 : C8;
 844 : C9;
 845 : C9;
 846 : C9;
 847 : C9;
 848 : C7;
 849 : C8;
 84A : CA;
 84B : C8;
 84C : C7;
 84D : CA;
 84E : D0;
 84F : E6;
 850 : E9;
 851 : E2;
 852 : D5;
 853 : CB;
 854 : C9;
 855 : C8;
 856 : C7;
 857 : C8;
 858 : C7;
 859 : C7;
 85A : CC;
 85B : D4;
 85C : D8;
 85D : D7;
 85E : D2;
 85F : C5;
 860 : C7;
 861 : C9;
 862 : CA;
 863 : C7;
 864 : C7;
 865 : C6;
 866 : C7;
 867 : C6;
 868 : C6;
 869 : C6;
 86A : C6;
 86B : C6;
 86C : C6;
 86D : C5;
 86E : C5;
 86F : C5;
 870 : C5;
 871 : C5;
 872 : C5;
 873 : C3;
 874 : C2;
 875 : C0;
 876 : C0;
 877 : BF;
 878 : BE;
 879 : BE;
 87A : BD;
 87B : BE;
 87C : BE;
 87D : BE;
 87E : BE;
 87F : BD;
 880 : B9;
 881 : B8;
 882 : B7;
 883 : B8;
 884 : B7;
 885 : B2;
 886 : B6;
 887 : B5;
 888 : B5;
 889 : B5;
 88A : B6;
 88B : B6;
 88C : B5;
 88D : B4;
 88E : B2;
 88F : B0;
 890 : B0;
 891 : B0;
 892 : B0;
 893 : AF;
 894 : AE;
 895 : AD;
 896 : AE;
 897 : AC;
 898 : A7;
 899 : A6;
 89A : A2;
 89B : 76;
 89C : 54;
 89D : 62;
 89E : 64;
 89F : 67;
 8A0 : 65;
 8A1 : 5F;
 8A2 : 5D;
 8A3 : 5E;
 8A4 : 5D;
 8A5 : 6C;
 8A6 : 9D;
 8A7 : 9B;
 8A8 : 99;
 8A9 : 98;
 8AA : 9A;
 8AB : 9A;
 8AC : 9A;
 8AD : 9A;
 8AE : 9A;
 8AF : 99;
 8B0 : 99;
 8B1 : 9A;
 8B2 : 99;
 8B3 : 98;
 8B4 : 96;
 8B5 : 95;
 8B6 : 96;
 8B7 : 96;
 8B8 : 96;
 8B9 : 95;
 8BA : 94;
 8BB : 93;
 8BC : 91;
 8BD : 91;
 8BE : 90;
 8BF : 82;
 8C0 : 81;
 8C1 : 82;
 8C2 : 83;
 8C3 : 85;
 8C4 : 87;
 8C5 : 89;
 8C6 : 89;
 8C7 : 8A;
 8C8 : 8A;
 8C9 : 8C;
 8CA : 8D;
 8CB : 8F;
 8CC : 90;
 8CD : 91;
 8CE : 91;
 8CF : 91;
 8D0 : 91;
 8D1 : 91;
 8D2 : 94;
 8D3 : 98;
 8D4 : 96;
 8D5 : 96;
 8D6 : 99;
 8D7 : 99;
 8D8 : 94;
 8D9 : 97;
 8DA : 95;
 8DB : 97;
 8DC : A0;
 8DD : A0;
 8DE : 9D;
 8DF : A0;
 8E0 : A0;
 8E1 : A2;
 8E2 : A4;
 8E3 : A4;
 8E4 : A2;
 8E5 : A3;
 8E6 : A6;
 8E7 : A7;
 8E8 : A6;
 8E9 : A6;
 8EA : A6;
 8EB : A7;
 8EC : A8;
 8ED : A8;
 8EE : A8;
 8EF : A9;
 8F0 : AB;
 8F1 : AC;
 8F2 : AD;
 8F3 : AD;
 8F4 : AD;
 8F5 : AE;
 8F6 : AE;
 8F7 : AF;
 8F8 : B0;
 8F9 : B1;
 8FA : B3;
 8FB : B3;
 8FC : B3;
 8FD : B3;
 8FE : B2;
 8FF : B0;
 900 : BB;
 901 : C1;
 902 : B9;
 903 : B6;
 904 : BF;
 905 : C3;
 906 : BB;
 907 : B9;
 908 : BA;
 909 : B9;
 90A : B8;
 90B : B8;
 90C : BA;
 90D : BF;
 90E : C3;
 90F : BE;
 910 : C4;
 911 : C2;
 912 : BD;
 913 : BF;
 914 : BE;
 915 : BA;
 916 : BC;
 917 : BE;
 918 : BE;
 919 : BD;
 91A : BD;
 91B : BD;
 91C : BD;
 91D : BE;
 91E : BF;
 91F : BC;
 920 : BD;
 921 : BE;
 922 : BE;
 923 : BF;
 924 : BF;
 925 : BE;
 926 : BE;
 927 : BF;
 928 : BE;
 929 : BE;
 92A : C0;
 92B : C1;
 92C : C0;
 92D : BE;
 92E : BD;
 92F : C0;
 930 : C0;
 931 : C1;
 932 : C1;
 933 : C1;
 934 : C1;
 935 : C3;
 936 : C4;
 937 : C3;
 938 : C3;
 939 : C3;
 93A : C2;
 93B : C1;
 93C : C2;
 93D : C1;
 93E : C0;
 93F : C3;
 940 : C3;
 941 : C3;
 942 : C2;
 943 : C2;
 944 : C1;
 945 : C1;
 946 : C1;
 947 : BF;
 948 : C0;
 949 : C1;
 94A : C0;
 94B : BE;
 94C : BD;
 94D : BF;
 94E : C1;
 94F : C1;
 950 : C2;
 951 : BF;
 952 : BD;
 953 : C7;
 954 : BA;
 955 : 97;
 956 : 8F;
 957 : BD;
 958 : C0;
 959 : C3;
 95A : C3;
 95B : C4;
 95C : C6;
 95D : C5;
 95E : C3;
 95F : C5;
 960 : C3;
 961 : C4;
 962 : C2;
 963 : BF;
 964 : B8;
 965 : AE;
 966 : 7D;
 967 : 5A;
 968 : 4C;
 969 : 68;
 96A : 6F;
 96B : 73;
 96C : 7B;
 96D : 83;
 96E : 81;
 96F : 85;
 970 : 8E;
 971 : AE;
 972 : C5;
 973 : C0;
 974 : C4;
 975 : C6;
 976 : C8;
 977 : C9;
 978 : C9;
 979 : C9;
 97A : C9;
 97B : C9;
 97C : C8;
 97D : C8;
 97E : C7;
 97F : C9;
 980 : C9;
 981 : C9;
 982 : C9;
 983 : C9;
 984 : CA;
 985 : CA;
 986 : C9;
 987 : CA;
 988 : C8;
 989 : C9;
 98A : CD;
 98B : CF;
 98C : D4;
 98D : DC;
 98E : E6;
 98F : E7;
 990 : E8;
 991 : E9;
 992 : E9;
 993 : E0;
 994 : D4;
 995 : D0;
 996 : D3;
 997 : DC;
 998 : D9;
 999 : D8;
 99A : DC;
 99B : E3;
 99C : E6;
 99D : E1;
 99E : DB;
 99F : C8;
 9A0 : CC;
 9A1 : CF;
 9A2 : CF;
 9A3 : CA;
 9A4 : C6;
 9A5 : C7;
 9A6 : C8;
 9A7 : C7;
 9A8 : C7;
 9A9 : C7;
 9AA : C7;
 9AB : C6;
 9AC : C6;
 9AD : C6;
 9AE : C5;
 9AF : C8;
 9B0 : C6;
 9B1 : C4;
 9B2 : C3;
 9B3 : C2;
 9B4 : C3;
 9B5 : C4;
 9B6 : C4;
 9B7 : C3;
 9B8 : C2;
 9B9 : C0;
 9BA : BF;
 9BB : BF;
 9BC : BE;
 9BD : BD;
 9BE : BC;
 9BF : BE;
 9C0 : BB;
 9C1 : BC;
 9C2 : BB;
 9C3 : BC;
 9C4 : BB;
 9C5 : B4;
 9C6 : B8;
 9C7 : B7;
 9C8 : B7;
 9C9 : B7;
 9CA : B6;
 9CB : B5;
 9CC : B3;
 9CD : B3;
 9CE : B3;
 9CF : B1;
 9D0 : B2;
 9D1 : B3;
 9D2 : B2;
 9D3 : B0;
 9D4 : AE;
 9D5 : AD;
 9D6 : AE;
 9D7 : AB;
 9D8 : A8;
 9D9 : A7;
 9DA : A1;
 9DB : 72;
 9DC : 4F;
 9DD : 5B;
 9DE : 5C;
 9DF : 58;
 9E0 : 58;
 9E1 : 57;
 9E2 : 59;
 9E3 : 5F;
 9E4 : 5D;
 9E5 : 70;
 9E6 : 9A;
 9E7 : 9C;
 9E8 : 9B;
 9E9 : 9A;
 9EA : 9B;
 9EB : 9A;
 9EC : 99;
 9ED : 97;
 9EE : 97;
 9EF : 96;
 9F0 : 96;
 9F1 : 98;
 9F2 : 96;
 9F3 : 94;
 9F4 : 93;
 9F5 : 93;
 9F6 : 93;
 9F7 : 90;
 9F8 : 90;
 9F9 : 90;
 9FA : 8F;
 9FB : 90;
 9FC : 8F;
 9FD : 8F;
 9FE : 8F;
 9FF : 82;
 A00 : 81;
 A01 : 82;
 A02 : 85;
 A03 : 88;
 A04 : 8A;
 A05 : 8A;
 A06 : 8B;
 A07 : 8C;
 A08 : 8D;
 A09 : 8E;
 A0A : 8F;
 A0B : 90;
 A0C : 91;
 A0D : 92;
 A0E : 93;
 A0F : 93;
 A10 : 94;
 A11 : 95;
 A12 : 95;
 A13 : 95;
 A14 : 96;
 A15 : 97;
 A16 : 97;
 A17 : 94;
 A18 : 96;
 A19 : 99;
 A1A : 9B;
 A1B : 9C;
 A1C : 9E;
 A1D : A0;
 A1E : A0;
 A1F : A0;
 A20 : A1;
 A21 : A1;
 A22 : A1;
 A23 : A3;
 A24 : A4;
 A25 : A6;
 A26 : A7;
 A27 : A4;
 A28 : A5;
 A29 : A7;
 A2A : A9;
 A2B : A9;
 A2C : A8;
 A2D : A8;
 A2E : AA;
 A2F : AA;
 A30 : A8;
 A31 : AF;
 A32 : B2;
 A33 : AE;
 A34 : AB;
 A35 : A9;
 A36 : AE;
 A37 : B0;
 A38 : B1;
 A39 : B2;
 A3A : B4;
 A3B : B4;
 A3C : B3;
 A3D : B3;
 A3E : B4;
 A3F : B1;
 A40 : B1;
 A41 : B2;
 A42 : B2;
 A43 : B2;
 A44 : B4;
 A45 : B5;
 A46 : B7;
 A47 : BD;
 A48 : BD;
 A49 : BD;
 A4A : BC;
 A4B : B9;
 A4C : B9;
 A4D : C1;
 A4E : CA;
 A4F : B7;
 A50 : BA;
 A51 : BB;
 A52 : BA;
 A53 : BA;
 A54 : BB;
 A55 : BD;
 A56 : BC;
 A57 : BC;
 A58 : BD;
 A59 : BD;
 A5A : BD;
 A5B : BE;
 A5C : BD;
 A5D : BD;
 A5E : BD;
 A5F : BE;
 A60 : BE;
 A61 : BD;
 A62 : BE;
 A63 : BF;
 A64 : C0;
 A65 : BF;
 A66 : BD;
 A67 : BE;
 A68 : C0;
 A69 : C0;
 A6A : BF;
 A6B : BF;
 A6C : BF;
 A6D : C0;
 A6E : C0;
 A6F : C1;
 A70 : C1;
 A71 : C1;
 A72 : C1;
 A73 : C2;
 A74 : C2;
 A75 : C2;
 A76 : C3;
 A77 : C5;
 A78 : C4;
 A79 : C3;
 A7A : C2;
 A7B : C1;
 A7C : C2;
 A7D : C2;
 A7E : C2;
 A7F : BF;
 A80 : C0;
 A81 : C1;
 A82 : C1;
 A83 : C1;
 A84 : C1;
 A85 : C1;
 A86 : C1;
 A87 : BF;
 A88 : BF;
 A89 : BF;
 A8A : BE;
 A8B : BD;
 A8C : BC;
 A8D : BD;
 A8E : BF;
 A8F : C1;
 A90 : BB;
 A91 : BD;
 A92 : C5;
 A93 : B4;
 A94 : 62;
 A95 : 53;
 A96 : 5E;
 A97 : 89;
 A98 : C9;
 A99 : C2;
 A9A : C4;
 A9B : C2;
 A9C : C9;
 A9D : C5;
 A9E : CA;
 A9F : C3;
 AA0 : C5;
 AA1 : C2;
 AA2 : BF;
 AA3 : BD;
 AA4 : BD;
 AA5 : A8;
 AA6 : 7B;
 AA7 : 71;
 AA8 : 75;
 AA9 : 86;
 AAA : 81;
 AAB : 82;
 AAC : 87;
 AAD : 8A;
 AAE : 8C;
 AAF : 88;
 AB0 : 92;
 AB1 : B2;
 AB2 : C4;
 AB3 : C4;
 AB4 : C4;
 AB5 : C7;
 AB6 : C8;
 AB7 : C7;
 AB8 : CA;
 AB9 : C7;
 ABA : CC;
 ABB : CC;
 ABC : C9;
 ABD : C7;
 ABE : C7;
 ABF : CB;
 AC0 : C7;
 AC1 : C9;
 AC2 : CC;
 AC3 : C6;
 AC4 : C9;
 AC5 : CD;
 AC6 : C7;
 AC7 : CC;
 AC8 : C8;
 AC9 : C7;
 ACA : D5;
 ACB : E1;
 ACC : E9;
 ACD : E2;
 ACE : E3;
 ACF : E1;
 AD0 : E1;
 AD1 : DF;
 AD2 : E6;
 AD3 : E1;
 AD4 : E5;
 AD5 : E0;
 AD6 : DF;
 AD7 : E1;
 AD8 : E4;
 AD9 : E0;
 ADA : DE;
 ADB : DF;
 ADC : DE;
 ADD : DE;
 ADE : D8;
 ADF : D4;
 AE0 : E1;
 AE1 : E3;
 AE2 : DF;
 AE3 : D9;
 AE4 : C4;
 AE5 : C6;
 AE6 : C8;
 AE7 : C6;
 AE8 : C7;
 AE9 : C5;
 AEA : C6;
 AEB : C5;
 AEC : C7;
 AED : C9;
 AEE : C3;
 AEF : C6;
 AF0 : C5;
 AF1 : C8;
 AF2 : C4;
 AF3 : C3;
 AF4 : C8;
 AF5 : C4;
 AF6 : BF;
 AF7 : C1;
 AF8 : C1;
 AF9 : C4;
 AFA : C2;
 AFB : C0;
 AFC : BE;
 AFD : BC;
 AFE : BD;
 AFF : BE;
 B00 : BF;
 B01 : B9;
 B02 : BB;
 B03 : BD;
 B04 : BC;
 B05 : BB;
 B06 : B7;
 B07 : B8;
 B08 : BB;
 B09 : BA;
 B0A : B8;
 B0B : B7;
 B0C : B7;
 B0D : B5;
 B0E : B7;
 B0F : B4;
 B10 : B5;
 B11 : B5;
 B12 : B4;
 B13 : B3;
 B14 : AF;
 B15 : AE;
 B16 : B1;
 B17 : AC;
 B18 : AB;
 B19 : AA;
 B1A : A4;
 B1B : 6C;
 B1C : 4E;
 B1D : 6A;
 B1E : 5D;
 B1F : 57;
 B20 : 50;
 B21 : 4C;
 B22 : 52;
 B23 : 57;
 B24 : 51;
 B25 : 65;
 B26 : 9C;
 B27 : 9E;
 B28 : 9B;
 B29 : 9B;
 B2A : 9C;
 B2B : 99;
 B2C : 98;
 B2D : 99;
 B2E : 97;
 B2F : 97;
 B30 : 97;
 B31 : 97;
 B32 : 95;
 B33 : 95;
 B34 : 97;
 B35 : 95;
 B36 : 93;
 B37 : 8E;
 B38 : 8F;
 B39 : 90;
 B3A : 8F;
 B3B : 8E;
 B3C : 8D;
 B3D : 8C;
 B3E : 8B;
 B3F : 84;
 B40 : 82;
 B41 : 83;
 B42 : 86;
 B43 : 89;
 B44 : 8B;
 B45 : 8B;
 B46 : 8C;
 B47 : 8E;
 B48 : 8E;
 B49 : 8F;
 B4A : 90;
 B4B : 92;
 B4C : 93;
 B4D : 94;
 B4E : 94;
 B4F : 94;
 B50 : 95;
 B51 : 96;
 B52 : 96;
 B53 : 96;
 B54 : 97;
 B55 : 97;
 B56 : 97;
 B57 : 98;
 B58 : 99;
 B59 : 9B;
 B5A : 9C;
 B5B : 9D;
 B5C : 9D;
 B5D : 9E;
 B5E : 9F;
 B5F : A1;
 B60 : A2;
 B61 : A2;
 B62 : A4;
 B63 : A5;
 B64 : A5;
 B65 : A6;
 B66 : A7;
 B67 : A7;
 B68 : A7;
 B69 : A5;
 B6A : A6;
 B6B : A7;
 B6C : A8;
 B6D : AA;
 B6E : AB;
 B6F : AC;
 B70 : AC;
 B71 : AE;
 B72 : A9;
 B73 : AB;
 B74 : B2;
 B75 : B1;
 B76 : AF;
 B77 : B0;
 B78 : B1;
 B79 : B2;
 B7A : B4;
 B7B : B5;
 B7C : B4;
 B7D : B4;
 B7E : B5;
 B7F : B4;
 B80 : B4;
 B81 : B4;
 B82 : B4;
 B83 : B6;
 B84 : B6;
 B85 : B8;
 B86 : B9;
 B87 : B8;
 B88 : B9;
 B89 : BA;
 B8A : BA;
 B8B : B9;
 B8C : B9;
 B8D : BE;
 B8E : C3;
 B8F : BB;
 B90 : BA;
 B91 : B9;
 B92 : B8;
 B93 : B9;
 B94 : BC;
 B95 : BD;
 B96 : BC;
 B97 : BD;
 B98 : BD;
 B99 : BD;
 B9A : BD;
 B9B : BD;
 B9C : BD;
 B9D : BD;
 B9E : BD;
 B9F : BF;
 BA0 : C0;
 BA1 : C0;
 BA2 : C0;
 BA3 : BE;
 BA4 : BF;
 BA5 : BF;
 BA6 : BF;
 BA7 : C0;
 BA8 : C2;
 BA9 : C1;
 BAA : C2;
 BAB : C1;
 BAC : C0;
 BAD : C2;
 BAE : C2;
 BAF : C2;
 BB0 : C2;
 BB1 : C3;
 BB2 : C3;
 BB3 : C3;
 BB4 : C3;
 BB5 : C3;
 BB6 : C3;
 BB7 : C4;
 BB8 : C4;
 BB9 : C3;
 BBA : C2;
 BBB : C1;
 BBC : C2;
 BBD : C1;
 BBE : C1;
 BBF : C5;
 BC0 : C4;
 BC1 : C2;
 BC2 : C1;
 BC3 : C1;
 BC4 : C1;
 BC5 : C2;
 BC6 : C2;
 BC7 : C1;
 BC8 : C1;
 BC9 : BF;
 BCA : BD;
 BCB : BC;
 BCC : BC;
 BCD : BC;
 BCE : BB;
 BCF : BA;
 BD0 : BA;
 BD1 : C3;
 BD2 : B9;
 BD3 : 6A;
 BD4 : 50;
 BD5 : 69;
 BD6 : 6D;
 BD7 : 7D;
 BD8 : CA;
 BD9 : C7;
 BDA : C5;
 BDB : C2;
 BDC : C7;
 BDD : C2;
 BDE : C3;
 BDF : C7;
 BE0 : C9;
 BE1 : C4;
 BE2 : BF;
 BE3 : BC;
 BE4 : BB;
 BE5 : A5;
 BE6 : 77;
 BE7 : 70;
 BE8 : 6F;
 BE9 : 77;
 BEA : 77;
 BEB : 7F;
 BEC : 86;
 BED : 88;
 BEE : 85;
 BEF : 83;
 BF0 : 8C;
 BF1 : B9;
 BF2 : C3;
 BF3 : C2;
 BF4 : C2;
 BF5 : C5;
 BF6 : CB;
 BF7 : CA;
 BF8 : C7;
 BF9 : C6;
 BFA : C5;
 BFB : CA;
 BFC : C7;
 BFD : C9;
 BFE : C8;
 BFF : C7;
 C00 : CD;
 C01 : C9;
 C02 : C6;
 C03 : CD;
 C04 : CA;
 C05 : C3;
 C06 : CC;
 C07 : C9;
 C08 : CA;
 C09 : D1;
 C0A : DD;
 C0B : E0;
 C0C : E2;
 C0D : E5;
 C0E : E6;
 C0F : E1;
 C10 : E3;
 C11 : DF;
 C12 : E2;
 C13 : DF;
 C14 : E3;
 C15 : DF;
 C16 : DF;
 C17 : DF;
 C18 : E3;
 C19 : DF;
 C1A : DC;
 C1B : DE;
 C1C : E4;
 C1D : E4;
 C1E : DC;
 C1F : DA;
 C20 : D7;
 C21 : DF;
 C22 : DB;
 C23 : DD;
 C24 : D6;
 C25 : C3;
 C26 : C4;
 C27 : C3;
 C28 : C1;
 C29 : C1;
 C2A : C5;
 C2B : C6;
 C2C : C9;
 C2D : CC;
 C2E : CA;
 C2F : C6;
 C30 : C3;
 C31 : C3;
 C32 : C0;
 C33 : C0;
 C34 : C4;
 C35 : C5;
 C36 : C4;
 C37 : C2;
 C38 : C1;
 C39 : BF;
 C3A : BC;
 C3B : BE;
 C3C : C2;
 C3D : C0;
 C3E : BF;
 C3F : C1;
 C40 : BE;
 C41 : BB;
 C42 : BD;
 C43 : BD;
 C44 : B6;
 C45 : B7;
 C46 : B8;
 C47 : BA;
 C48 : BA;
 C49 : B9;
 C4A : B8;
 C4B : B8;
 C4C : B6;
 C4D : B5;
 C4E : B6;
 C4F : B7;
 C50 : B5;
 C51 : B1;
 C52 : B2;
 C53 : B4;
 C54 : B4;
 C55 : B1;
 C56 : B0;
 C57 : B2;
 C58 : A9;
 C59 : A8;
 C5A : A3;
 C5B : 67;
 C5C : 48;
 C5D : 61;
 C5E : 69;
 C5F : 65;
 C60 : 6A;
 C61 : 6C;
 C62 : 6B;
 C63 : 6B;
 C64 : 63;
 C65 : 6D;
 C66 : 96;
 C67 : 9C;
 C68 : 9C;
 C69 : A0;
 C6A : 9C;
 C6B : 9C;
 C6C : 98;
 C6D : 9B;
 C6E : 99;
 C6F : 98;
 C70 : 98;
 C71 : 96;
 C72 : 95;
 C73 : 95;
 C74 : 94;
 C75 : 93;
 C76 : 92;
 C77 : 93;
 C78 : 92;
 C79 : 91;
 C7A : 90;
 C7B : 8E;
 C7C : 8D;
 C7D : 8D;
 C7E : 8D;
 C7F : 86;
 C80 : 85;
 C81 : 85;
 C82 : 88;
 C83 : 8B;
 C84 : 8C;
 C85 : 8D;
 C86 : 8D;
 C87 : 8F;
 C88 : 8F;
 C89 : 90;
 C8A : 91;
 C8B : 92;
 C8C : 94;
 C8D : 94;
 C8E : 95;
 C8F : 95;
 C90 : 97;
 C91 : 96;
 C92 : 96;
 C93 : 96;
 C94 : 97;
 C95 : 98;
 C96 : 98;
 C97 : 9A;
 C98 : 9C;
 C99 : 9D;
 C9A : 9E;
 C9B : 9E;
 C9C : 9E;
 C9D : 9F;
 C9E : A0;
 C9F : A1;
 CA0 : A2;
 CA1 : A4;
 CA2 : A4;
 CA3 : A6;
 CA4 : A6;
 CA5 : A6;
 CA6 : A6;
 CA7 : A7;
 CA8 : A7;
 CA9 : A7;
 CAA : A7;
 CAB : A8;
 CAC : AB;
 CAD : AD;
 CAE : AD;
 CAF : AC;
 CB0 : A9;
 CB1 : AA;
 CB2 : AC;
 CB3 : B1;
 CB4 : B3;
 CB5 : AE;
 CB6 : B1;
 CB7 : B0;
 CB8 : B1;
 CB9 : B4;
 CBA : B5;
 CBB : B5;
 CBC : B5;
 CBD : B5;
 CBE : B5;
 CBF : B5;
 CC0 : B5;
 CC1 : B6;
 CC2 : B6;
 CC3 : B6;
 CC4 : B6;
 CC5 : B7;
 CC6 : B8;
 CC7 : B8;
 CC8 : BA;
 CC9 : BB;
 CCA : BB;
 CCB : B8;
 CCC : B9;
 CCD : BB;
 CCE : BA;
 CCF : BD;
 CD0 : BC;
 CD1 : BB;
 CD2 : BB;
 CD3 : BD;
 CD4 : BF;
 CD5 : BE;
 CD6 : BA;
 CD7 : BE;
 CD8 : BE;
 CD9 : BE;
 CDA : BE;
 CDB : BE;
 CDC : BE;
 CDD : BE;
 CDE : BF;
 CDF : C0;
 CE0 : C1;
 CE1 : C1;
 CE2 : C0;
 CE3 : BE;
 CE4 : BE;
 CE5 : C0;
 CE6 : C1;
 CE7 : C1;
 CE8 : C2;
 CE9 : C3;
 CEA : C3;
 CEB : C1;
 CEC : C2;
 CED : C2;
 CEE : C3;
 CEF : C3;
 CF0 : C3;
 CF1 : C4;
 CF2 : C4;
 CF3 : C4;
 CF4 : C4;
 CF5 : C3;
 CF6 : C3;
 CF7 : C2;
 CF8 : C2;
 CF9 : C2;
 CFA : C2;
 CFB : C2;
 CFC : C1;
 CFD : C1;
 CFE : C1;
 CFF : C1;
 D00 : C1;
 D01 : C3;
 D02 : C4;
 D03 : C4;
 D04 : C3;
 D05 : C0;
 D06 : BD;
 D07 : BD;
 D08 : BD;
 D09 : BC;
 D0A : BC;
 D0B : BD;
 D0C : C0;
 D0D : BF;
 D0E : BC;
 D0F : B7;
 D10 : BF;
 D11 : BC;
 D12 : 6D;
 D13 : 58;
 D14 : 63;
 D15 : 88;
 D16 : 62;
 D17 : 77;
 D18 : C8;
 D19 : C1;
 D1A : C2;
 D1B : C5;
 D1C : C6;
 D1D : C5;
 D1E : C9;
 D1F : C3;
 D20 : C7;
 D21 : C5;
 D22 : C0;
 D23 : BC;
 D24 : BC;
 D25 : A8;
 D26 : 7C;
 D27 : 73;
 D28 : 71;
 D29 : 81;
 D2A : 84;
 D2B : 8D;
 D2C : 89;
 D2D : 88;
 D2E : 7F;
 D2F : 7B;
 D30 : 88;
 D31 : BD;
 D32 : C1;
 D33 : C1;
 D34 : C2;
 D35 : C4;
 D36 : C7;
 D37 : CA;
 D38 : C7;
 D39 : CA;
 D3A : C4;
 D3B : C6;
 D3C : C2;
 D3D : C7;
 D3E : C8;
 D3F : C3;
 D40 : C6;
 D41 : C9;
 D42 : C7;
 D43 : C9;
 D44 : C5;
 D45 : C4;
 D46 : CC;
 D47 : CD;
 D48 : C7;
 D49 : C8;
 D4A : D3;
 D4B : DA;
 D4C : DE;
 D4D : E0;
 D4E : DA;
 D4F : DD;
 D50 : DE;
 D51 : DA;
 D52 : DE;
 D53 : E1;
 D54 : E3;
 D55 : DC;
 D56 : D9;
 D57 : DB;
 D58 : DA;
 D59 : DF;
 D5A : E3;
 D5B : E0;
 D5C : DD;
 D5D : D6;
 D5E : D8;
 D5F : DB;
 D60 : D7;
 D61 : DE;
 D62 : D9;
 D63 : D8;
 D64 : D7;
 D65 : C5;
 D66 : C8;
 D67 : CB;
 D68 : CE;
 D69 : D3;
 D6A : D1;
 D6B : C7;
 D6C : C3;
 D6D : C8;
 D6E : D1;
 D6F : D2;
 D70 : CA;
 D71 : C0;
 D72 : C0;
 D73 : C2;
 D74 : C1;
 D75 : C2;
 D76 : C0;
 D77 : BE;
 D78 : C2;
 D79 : C1;
 D7A : BE;
 D7B : BF;
 D7C : C0;
 D7D : BD;
 D7E : BD;
 D7F : BC;
 D80 : B9;
 D81 : BA;
 D82 : BB;
 D83 : BA;
 D84 : B6;
 D85 : B3;
 D86 : B2;
 D87 : B8;
 D88 : B6;
 D89 : B7;
 D8A : B6;
 D8B : B7;
 D8C : B3;
 D8D : B0;
 D8E : AE;
 D8F : B0;
 D90 : B0;
 D91 : B2;
 D92 : B1;
 D93 : B1;
 D94 : B1;
 D95 : B0;
 D96 : AF;
 D97 : B1;
 D98 : AD;
 D99 : AB;
 D9A : A6;
 D9B : 70;
 D9C : 57;
 D9D : 60;
 D9E : 64;
 D9F : 5C;
 DA0 : 59;
 DA1 : 57;
 DA2 : 5A;
 DA3 : 60;
 DA4 : 5B;
 DA5 : 6F;
 DA6 : A3;
 DA7 : A1;
 DA8 : 9E;
 DA9 : A0;
 DAA : 9A;
 DAB : 9E;
 DAC : 9D;
 DAD : 9F;
 DAE : 9C;
 DAF : 9A;
 DB0 : 98;
 DB1 : 97;
 DB2 : 97;
 DB3 : 97;
 DB4 : 96;
 DB5 : 95;
 DB6 : 95;
 DB7 : 94;
 DB8 : 93;
 DB9 : 91;
 DBA : 8F;
 DBB : 8D;
 DBC : 8C;
 DBD : 8C;
 DBE : 8C;
 DBF : 87;
 DC0 : 86;
 DC1 : 86;
 DC2 : 8A;
 DC3 : 8C;
 DC4 : 8C;
 DC5 : 8D;
 DC6 : 8E;
 DC7 : 8F;
 DC8 : 8F;
 DC9 : 8F;
 DCA : 90;
 DCB : 92;
 DCC : 93;
 DCD : 94;
 DCE : 94;
 DCF : 95;
 DD0 : 97;
 DD1 : 97;
 DD2 : 97;
 DD3 : 97;
 DD4 : 98;
 DD5 : 99;
 DD6 : 99;
 DD7 : 9B;
 DD8 : 9C;
 DD9 : 9E;
 DDA : 9F;
 DDB : A0;
 DDC : A0;
 DDD : A1;
 DDE : A2;
 DDF : A3;
 DE0 : A4;
 DE1 : A5;
 DE2 : A5;
 DE3 : A6;
 DE4 : A6;
 DE5 : A6;
 DE6 : A7;
 DE7 : A4;
 DE8 : A7;
 DE9 : A8;
 DEA : A9;
 DEB : AA;
 DEC : AB;
 DED : AB;
 DEE : AB;
 DEF : AC;
 DF0 : AA;
 DF1 : AD;
 DF2 : B0;
 DF3 : B2;
 DF4 : AF;
 DF5 : AB;
 DF6 : B3;
 DF7 : B2;
 DF8 : B3;
 DF9 : B4;
 DFA : B4;
 DFB : B5;
 DFC : B5;
 DFD : B5;
 DFE : B6;
 DFF : B5;
 E00 : B5;
 E01 : B7;
 E02 : B7;
 E03 : B7;
 E04 : B8;
 E05 : B9;
 E06 : BA;
 E07 : BA;
 E08 : BB;
 E09 : BC;
 E0A : BB;
 E0B : BC;
 E0C : BD;
 E0D : BB;
 E0E : B8;
 E0F : BB;
 E10 : BB;
 E11 : BA;
 E12 : BA;
 E13 : BC;
 E14 : BE;
 E15 : BD;
 E16 : B9;
 E17 : BE;
 E18 : BE;
 E19 : BE;
 E1A : BF;
 E1B : BF;
 E1C : BF;
 E1D : C0;
 E1E : C0;
 E1F : C0;
 E20 : C1;
 E21 : C1;
 E22 : C0;
 E23 : BF;
 E24 : BF;
 E25 : C0;
 E26 : C1;
 E27 : C2;
 E28 : C4;
 E29 : C4;
 E2A : C3;
 E2B : C2;
 E2C : C2;
 E2D : C2;
 E2E : C3;
 E2F : C2;
 E30 : C3;
 E31 : C3;
 E32 : C4;
 E33 : C4;
 E34 : C3;
 E35 : C3;
 E36 : C2;
 E37 : C2;
 E38 : C2;
 E39 : C2;
 E3A : C3;
 E3B : C3;
 E3C : C2;
 E3D : C1;
 E3E : C1;
 E3F : C2;
 E40 : C1;
 E41 : C1;
 E42 : C1;
 E43 : C0;
 E44 : BF;
 E45 : BD;
 E46 : BC;
 E47 : C0;
 E48 : C2;
 E49 : C1;
 E4A : BF;
 E4B : BE;
 E4C : BF;
 E4D : BD;
 E4E : B9;
 E4F : C0;
 E50 : C6;
 E51 : 84;
 E52 : 54;
 E53 : 68;
 E54 : 70;
 E55 : 87;
 E56 : 5C;
 E57 : 6C;
 E58 : C5;
 E59 : C3;
 E5A : C1;
 E5B : C2;
 E5C : C2;
 E5D : C3;
 E5E : C2;
 E5F : BF;
 E60 : C2;
 E61 : C3;
 E62 : BF;
 E63 : BA;
 E64 : BB;
 E65 : A4;
 E66 : 7A;
 E67 : 6A;
 E68 : 64;
 E69 : 80;
 E6A : 7F;
 E6B : 93;
 E6C : 8C;
 E6D : 8C;
 E6E : 88;
 E6F : 85;
 E70 : 91;
 E71 : BB;
 E72 : C3;
 E73 : C4;
 E74 : C9;
 E75 : CA;
 E76 : C7;
 E77 : C8;
 E78 : C5;
 E79 : C7;
 E7A : C6;
 E7B : CB;
 E7C : CC;
 E7D : C9;
 E7E : C6;
 E7F : D1;
 E80 : C9;
 E81 : CB;
 E82 : C9;
 E83 : C9;
 E84 : C8;
 E85 : CD;
 E86 : D0;
 E87 : CF;
 E88 : CE;
 E89 : D1;
 E8A : D3;
 E8B : D3;
 E8C : D8;
 E8D : E2;
 E8E : E1;
 E8F : E1;
 E90 : E4;
 E91 : E0;
 E92 : DF;
 E93 : E1;
 E94 : E1;
 E95 : DB;
 E96 : DA;
 E97 : D2;
 E98 : D6;
 E99 : DA;
 E9A : D7;
 E9B : D5;
 E9C : DC;
 E9D : D6;
 E9E : D4;
 E9F : D5;
 EA0 : D9;
 EA1 : D9;
 EA2 : D9;
 EA3 : D6;
 EA4 : D6;
 EA5 : D9;
 EA6 : DE;
 EA7 : DE;
 EA8 : DA;
 EA9 : DA;
 EAA : D9;
 EAB : D7;
 EAC : CF;
 EAD : C3;
 EAE : C3;
 EAF : C6;
 EB0 : C5;
 EB1 : BF;
 EB2 : C3;
 EB3 : C6;
 EB4 : C1;
 EB5 : C0;
 EB6 : BE;
 EB7 : C1;
 EB8 : C1;
 EB9 : BC;
 EBA : BC;
 EBB : BC;
 EBC : BB;
 EBD : BD;
 EBE : BF;
 EBF : C1;
 EC0 : C1;
 EC1 : BF;
 EC2 : B9;
 EC3 : BB;
 EC4 : C0;
 EC5 : BB;
 EC6 : B5;
 EC7 : BF;
 EC8 : BB;
 EC9 : BC;
 ECA : BB;
 ECB : BB;
 ECC : B8;
 ECD : BA;
 ECE : B8;
 ECF : B6;
 ED0 : B7;
 ED1 : B8;
 ED2 : B7;
 ED3 : B5;
 ED4 : B7;
 ED5 : B7;
 ED6 : B5;
 ED7 : AF;
 ED8 : B4;
 ED9 : B0;
 EDA : AB;
 EDB : 77;
 EDC : 5A;
 EDD : 66;
 EDE : 6C;
 EDF : 67;
 EE0 : 5E;
 EE1 : 58;
 EE2 : 5B;
 EE3 : 5F;
 EE4 : 56;
 EE5 : 69;
 EE6 : 9C;
 EE7 : 9C;
 EE8 : 9C;
 EE9 : 9E;
 EEA : 9D;
 EEB : A0;
 EEC : 9D;
 EED : 9B;
 EEE : 99;
 EEF : 9C;
 EF0 : 9A;
 EF1 : 98;
 EF2 : 98;
 EF3 : 98;
 EF4 : 96;
 EF5 : 96;
 EF6 : 97;
 EF7 : 93;
 EF8 : 92;
 EF9 : 91;
 EFA : 92;
 EFB : 91;
 EFC : 8F;
 EFD : 8C;
 EFE : 8B;
 EFF : 88;
 F00 : 86;
 F01 : 87;
 F02 : 89;
 F03 : 8C;
 F04 : 8C;
 F05 : 8D;
 F06 : 8E;
 F07 : 8F;
 F08 : 8F;
 F09 : 8F;
 F0A : 90;
 F0B : 91;
 F0C : 92;
 F0D : 93;
 F0E : 94;
 F0F : 95;
 F10 : 96;
 F11 : 96;
 F12 : 97;
 F13 : 97;
 F14 : 99;
 F15 : 9B;
 F16 : 9B;
 F17 : 9B;
 F18 : 9C;
 F19 : 9E;
 F1A : 9F;
 F1B : A0;
 F1C : A1;
 F1D : A2;
 F1E : A3;
 F1F : A5;
 F20 : A6;
 F21 : A7;
 F22 : A7;
 F23 : A7;
 F24 : A7;
 F25 : A9;
 F26 : AA;
 F27 : A6;
 F28 : A7;
 F29 : A9;
 F2A : AA;
 F2B : A9;
 F2C : A8;
 F2D : A9;
 F2E : AA;
 F2F : AF;
 F30 : B0;
 F31 : B0;
 F32 : AA;
 F33 : AA;
 F34 : B1;
 F35 : B1;
 F36 : B2;
 F37 : B3;
 F38 : B4;
 F39 : B5;
 F3A : B5;
 F3B : B5;
 F3C : B5;
 F3D : B5;
 F3E : B6;
 F3F : B6;
 F40 : B7;
 F41 : B8;
 F42 : B8;
 F43 : B9;
 F44 : BA;
 F45 : BB;
 F46 : BC;
 F47 : BA;
 F48 : BA;
 F49 : BB;
 F4A : BA;
 F4B : BC;
 F4C : C0;
 F4D : BE;
 F4E : BB;
 F4F : BF;
 F50 : BD;
 F51 : BB;
 F52 : B9;
 F53 : B9;
 F54 : BD;
 F55 : BF;
 F56 : C1;
 F57 : BE;
 F58 : BE;
 F59 : BE;
 F5A : BF;
 F5B : C0;
 F5C : BF;
 F5D : C0;
 F5E : C0;
 F5F : C0;
 F60 : C0;
 F61 : C0;
 F62 : C1;
 F63 : C3;
 F64 : C3;
 F65 : C2;
 F66 : C2;
 F67 : C5;
 F68 : C5;
 F69 : C4;
 F6A : C4;
 F6B : C3;
 F6C : C4;
 F6D : C3;
 F6E : C4;
 F6F : C2;
 F70 : C2;
 F71 : C2;
 F72 : C3;
 F73 : C3;
 F74 : C2;
 F75 : C2;
 F76 : C1;
 F77 : C3;
 F78 : C3;
 F79 : C3;
 F7A : C3;
 F7B : C2;
 F7C : C2;
 F7D : C1;
 F7E : C1;
 F7F : C1;
 F80 : C2;
 F81 : C4;
 F82 : C5;
 F83 : C4;
 F84 : C2;
 F85 : C1;
 F86 : C1;
 F87 : BA;
 F88 : BD;
 F89 : BE;
 F8A : BC;
 F8B : BB;
 F8C : BC;
 F8D : BB;
 F8E : B9;
 F8F : C1;
 F90 : A4;
 F91 : 4E;
 F92 : 62;
 F93 : 65;
 F94 : 6E;
 F95 : 87;
 F96 : 54;
 F97 : 65;
 F98 : C2;
 F99 : CD;
 F9A : C9;
 F9B : C7;
 F9C : CA;
 F9D : CE;
 F9E : C6;
 F9F : CC;
 FA0 : C8;
 FA1 : C9;
 FA2 : C6;
 FA3 : C4;
 FA4 : C0;
 FA5 : 9F;
 FA6 : 71;
 FA7 : 77;
 FA8 : 5F;
 FA9 : 7D;
 FAA : 70;
 FAB : 8C;
 FAC : 87;
 FAD : 84;
 FAE : 83;
 FAF : 8D;
 FB0 : 87;
 FB1 : 8D;
 FB2 : A2;
 FB3 : A0;
 FB4 : A3;
 FB5 : A4;
 FB6 : A0;
 FB7 : A4;
 FB8 : AB;
 FB9 : AE;
 FBA : AA;
 FBB : A8;
 FBC : A9;
 FBD : A1;
 FBE : A9;
 FBF : A0;
 FC0 : A2;
 FC1 : A1;
 FC2 : A3;
 FC3 : B1;
 FC4 : AA;
 FC5 : A7;
 FC6 : A6;
 FC7 : 9F;
 FC8 : A0;
 FC9 : A4;
 FCA : A0;
 FCB : A0;
 FCC : A5;
 FCD : A6;
 FCE : A9;
 FCF : A1;
 FD0 : A7;
 FD1 : A7;
 FD2 : A3;
 FD3 : A2;
 FD4 : A3;
 FD5 : A7;
 FD6 : A7;
 FD7 : A8;
 FD8 : A4;
 FD9 : A0;
 FDA : A3;
 FDB : A2;
 FDC : AA;
 FDD : A7;
 FDE : A9;
 FDF : AA;
 FE0 : A6;
 FE1 : A3;
 FE2 : A0;
 FE3 : 9E;
 FE4 : 9F;
 FE5 : 9F;
 FE6 : 9F;
 FE7 : A2;
 FE8 : A4;
 FE9 : A7;
 FEA : A3;
 FEB : A2;
 FEC : 9E;
 FED : 96;
 FEE : 99;
 FEF : 95;
 FF0 : 9A;
 FF1 : 9A;
 FF2 : 99;
 FF3 : 99;
 FF4 : 94;
 FF5 : 94;
 FF6 : 97;
 FF7 : 93;
 FF8 : 91;
 FF9 : 91;
 FFA : 9A;
 FFB : 9B;
 FFC : 97;
 FFD : 9B;
 FFE : 9B;
 FFF : 93;
 1000 : 94;
 1001 : 92;
 1002 : 8A;
 1003 : 8F;
 1004 : 95;
 1005 : 92;
 1006 : 96;
 1007 : 91;
 1008 : 90;
 1009 : 95;
 100A : 91;
 100B : 93;
 100C : 92;
 100D : 97;
 100E : 92;
 100F : 95;
 1010 : 8E;
 1011 : 8C;
 1012 : 8D;
 1013 : 8D;
 1014 : 8E;
 1015 : 89;
 1016 : 7D;
 1017 : 8F;
 1018 : 90;
 1019 : 87;
 101A : A1;
 101B : 7E;
 101C : 52;
 101D : 61;
 101E : 65;
 101F : 60;
 1020 : 5F;
 1021 : 5A;
 1022 : 5A;
 1023 : 62;
 1024 : 64;
 1025 : 74;
 1026 : 9E;
 1027 : A0;
 1028 : A3;
 1029 : 9F;
 102A : 9F;
 102B : 9D;
 102C : 9D;
 102D : 9A;
 102E : A0;
 102F : 9D;
 1030 : 9B;
 1031 : 9A;
 1032 : 98;
 1033 : 97;
 1034 : 95;
 1035 : 94;
 1036 : 95;
 1037 : 94;
 1038 : 93;
 1039 : 93;
 103A : 94;
 103B : 94;
 103C : 91;
 103D : 8E;
 103E : 8E;
 103F : 87;
 1040 : 87;
 1041 : 87;
 1042 : 89;
 1043 : 8B;
 1044 : 8C;
 1045 : 8D;
 1046 : 8F;
 1047 : 90;
 1048 : 90;
 1049 : 90;
 104A : 91;
 104B : 92;
 104C : 93;
 104D : 94;
 104E : 95;
 104F : 94;
 1050 : 96;
 1051 : 96;
 1052 : 97;
 1053 : 98;
 1054 : 9A;
 1055 : 9C;
 1056 : 9C;
 1057 : 9D;
 1058 : 9E;
 1059 : 9F;
 105A : A0;
 105B : A0;
 105C : A1;
 105D : A2;
 105E : A3;
 105F : A5;
 1060 : A5;
 1061 : A6;
 1062 : A5;
 1063 : A5;
 1064 : A6;
 1065 : A8;
 1066 : AA;
 1067 : AA;
 1068 : A8;
 1069 : A9;
 106A : AB;
 106B : AA;
 106C : AB;
 106D : B2;
 106E : BC;
 106F : B0;
 1070 : A8;
 1071 : AB;
 1072 : AD;
 1073 : AF;
 1074 : B4;
 1075 : B3;
 1076 : B2;
 1077 : B4;
 1078 : B5;
 1079 : B6;
 107A : B6;
 107B : B6;
 107C : B6;
 107D : B6;
 107E : B7;
 107F : B7;
 1080 : B8;
 1081 : B9;
 1082 : B9;
 1083 : BA;
 1084 : BA;
 1085 : BB;
 1086 : BC;
 1087 : BB;
 1088 : BC;
 1089 : BB;
 108A : BB;
 108B : BC;
 108C : BD;
 108D : BD;
 108E : BC;
 108F : BC;
 1090 : BD;
 1091 : BD;
 1092 : BC;
 1093 : BD;
 1094 : BE;
 1095 : C0;
 1096 : BE;
 1097 : BE;
 1098 : BE;
 1099 : BE;
 109A : BF;
 109B : BF;
 109C : C0;
 109D : C0;
 109E : C1;
 109F : C1;
 10A0 : C1;
 10A1 : C1;
 10A2 : C2;
 10A3 : C4;
 10A4 : C4;
 10A5 : C3;
 10A6 : C1;
 10A7 : C3;
 10A8 : C3;
 10A9 : C3;
 10AA : C3;
 10AB : C2;
 10AC : C2;
 10AD : C2;
 10AE : C2;
 10AF : C3;
 10B0 : C3;
 10B1 : C3;
 10B2 : C3;
 10B3 : C3;
 10B4 : C3;
 10B5 : C3;
 10B6 : C3;
 10B7 : C3;
 10B8 : C3;
 10B9 : C3;
 10BA : C2;
 10BB : C2;
 10BC : C2;
 10BD : C2;
 10BE : C2;
 10BF : C3;
 10C0 : C4;
 10C1 : C5;
 10C2 : C2;
 10C3 : C0;
 10C4 : BE;
 10C5 : BC;
 10C6 : BB;
 10C7 : C2;
 10C8 : C3;
 10C9 : C4;
 10CA : C3;
 10CB : C1;
 10CC : C3;
 10CD : C4;
 10CE : C5;
 10CF : C1;
 10D0 : 78;
 10D1 : 61;
 10D2 : 6B;
 10D3 : 68;
 10D4 : 73;
 10D5 : 78;
 10D6 : 52;
 10D7 : 60;
 10D8 : 8E;
 10D9 : 90;
 10DA : 96;
 10DB : 95;
 10DC : 98;
 10DD : A1;
 10DE : A2;
 10DF : 9E;
 10E0 : 98;
 10E1 : A2;
 10E2 : AC;
 10E3 : B4;
 10E4 : B8;
 10E5 : 99;
 10E6 : 72;
 10E7 : 6C;
 10E8 : 5C;
 10E9 : 7D;
 10EA : 76;
 10EB : 8B;
 10EC : 87;
 10ED : 84;
 10EE : 86;
 10EF : 94;
 10F0 : 78;
 10F1 : 62;
 10F2 : 7B;
 10F3 : 79;
 10F4 : 78;
 10F5 : 78;
 10F6 : 78;
 10F7 : 74;
 10F8 : 75;
 10F9 : 6E;
 10FA : 63;
 10FB : 6C;
 10FC : 73;
 10FD : 6E;
 10FE : 79;
 10FF : 80;
 1100 : 80;
 1101 : 81;
 1102 : 7A;
 1103 : 6A;
 1104 : 5C;
 1105 : 70;
 1106 : 67;
 1107 : 7C;
 1108 : 7D;
 1109 : 7E;
 110A : 7B;
 110B : 7B;
 110C : 78;
 110D : 5F;
 110E : 6B;
 110F : 79;
 1110 : 7A;
 1111 : 7E;
 1112 : 7D;
 1113 : 80;
 1114 : 80;
 1115 : 7A;
 1116 : 6A;
 1117 : 5F;
 1118 : 71;
 1119 : 77;
 111A : 84;
 111B : 7E;
 111C : 80;
 111D : 7C;
 111E : 78;
 111F : 6D;
 1120 : 61;
 1121 : 78;
 1122 : 72;
 1123 : 7C;
 1124 : 88;
 1125 : 7F;
 1126 : 81;
 1127 : 80;
 1128 : 70;
 1129 : 5F;
 112A : 54;
 112B : 6C;
 112C : 86;
 112D : 82;
 112E : 80;
 112F : 80;
 1130 : 7B;
 1131 : 6B;
 1132 : 5A;
 1133 : 60;
 1134 : 6D;
 1135 : 70;
 1136 : 79;
 1137 : 7E;
 1138 : 7C;
 1139 : 7B;
 113A : 79;
 113B : 60;
 113C : 4E;
 113D : 59;
 113E : 5A;
 113F : 76;
 1140 : 78;
 1141 : 7C;
 1142 : 78;
 1143 : 75;
 1144 : 65;
 1145 : 57;
 1146 : 6A;
 1147 : 64;
 1148 : 6B;
 1149 : 7C;
 114A : 7A;
 114B : 7C;
 114C : 75;
 114D : 72;
 114E : 5D;
 114F : 54;
 1150 : 57;
 1151 : 65;
 1152 : 73;
 1153 : 77;
 1154 : 76;
 1155 : 6D;
 1156 : 5F;
 1157 : 59;
 1158 : 60;
 1159 : 64;
 115A : 8D;
 115B : 79;
 115C : 4A;
 115D : 61;
 115E : 5F;
 115F : 63;
 1160 : 5D;
 1161 : 55;
 1162 : 54;
 1163 : 5D;
 1164 : 5D;
 1165 : 6F;
 1166 : 9D;
 1167 : A5;
 1168 : A8;
 1169 : A4;
 116A : 9F;
 116B : A2;
 116C : A2;
 116D : 9B;
 116E : 9C;
 116F : 9C;
 1170 : 9D;
 1171 : 9C;
 1172 : 99;
 1173 : 98;
 1174 : 9A;
 1175 : 9B;
 1176 : 9C;
 1177 : 99;
 1178 : 95;
 1179 : 94;
 117A : 95;
 117B : 94;
 117C : 92;
 117D : 90;
 117E : 91;
 117F : 89;
 1180 : 87;
 1181 : 88;
 1182 : 8A;
 1183 : 8B;
 1184 : 8C;
 1185 : 8E;
 1186 : 90;
 1187 : 90;
 1188 : 90;
 1189 : 90;
 118A : 91;
 118B : 92;
 118C : 94;
 118D : 94;
 118E : 95;
 118F : 95;
 1190 : 98;
 1191 : 98;
 1192 : 98;
 1193 : 99;
 1194 : 9A;
 1195 : 9D;
 1196 : 9D;
 1197 : 9E;
 1198 : 9F;
 1199 : A0;
 119A : A0;
 119B : A1;
 119C : A1;
 119D : A2;
 119E : A3;
 119F : A4;
 11A0 : A5;
 11A1 : A6;
 11A2 : A6;
 11A3 : A5;
 11A4 : A6;
 11A5 : A7;
 11A6 : A9;
 11A7 : AB;
 11A8 : A8;
 11A9 : AA;
 11AA : AD;
 11AB : AC;
 11AC : AF;
 11AD : BE;
 11AE : CF;
 11AF : BA;
 11B0 : AA;
 11B1 : B1;
 11B2 : BC;
 11B3 : B7;
 11B4 : B4;
 11B5 : B3;
 11B6 : B3;
 11B7 : B4;
 11B8 : B4;
 11B9 : B5;
 11BA : B5;
 11BB : B5;
 11BC : B6;
 11BD : B8;
 11BE : B9;
 11BF : B8;
 11C0 : B9;
 11C1 : B9;
 11C2 : BA;
 11C3 : BA;
 11C4 : BA;
 11C5 : BB;
 11C6 : BB;
 11C7 : BE;
 11C8 : BD;
 11C9 : BD;
 11CA : BE;
 11CB : BD;
 11CC : BD;
 11CD : BE;
 11CE : BE;
 11CF : BD;
 11D0 : BD;
 11D1 : BC;
 11D2 : BC;
 11D3 : BE;
 11D4 : C0;
 11D5 : BE;
 11D6 : BC;
 11D7 : C0;
 11D8 : BF;
 11D9 : C1;
 11DA : C1;
 11DB : C2;
 11DC : C3;
 11DD : C3;
 11DE : C3;
 11DF : C4;
 11E0 : C4;
 11E1 : C4;
 11E2 : C4;
 11E3 : C4;
 11E4 : C4;
 11E5 : C4;
 11E6 : C3;
 11E7 : C3;
 11E8 : C4;
 11E9 : C4;
 11EA : C3;
 11EB : C3;
 11EC : C2;
 11ED : C2;
 11EE : C3;
 11EF : C3;
 11F0 : C2;
 11F1 : C2;
 11F2 : C2;
 11F3 : C2;
 11F4 : C3;
 11F5 : C3;
 11F6 : C4;
 11F7 : C3;
 11F8 : C3;
 11F9 : C2;
 11FA : C2;
 11FB : C2;
 11FC : C2;
 11FD : C3;
 11FE : C3;
 11FF : C2;
 1200 : C1;
 1201 : BF;
 1202 : C2;
 1203 : C4;
 1204 : C9;
 1205 : CB;
 1206 : CC;
 1207 : C5;
 1208 : BE;
 1209 : B5;
 120A : AE;
 120B : A7;
 120C : A0;
 120D : A0;
 120E : A2;
 120F : 7F;
 1210 : 49;
 1211 : 50;
 1212 : 4D;
 1213 : 41;
 1214 : 41;
 1215 : 2E;
 1216 : 3C;
 1217 : 36;
 1218 : 34;
 1219 : 28;
 121A : 2B;
 121B : 24;
 121C : 21;
 121D : 2A;
 121E : 31;
 121F : 2F;
 1220 : 2F;
 1221 : 42;
 1222 : 52;
 1223 : 5C;
 1224 : 68;
 1225 : 5D;
 1226 : 4A;
 1227 : 46;
 1228 : 4A;
 1229 : 64;
 122A : 6D;
 122B : 79;
 122C : 7E;
 122D : 89;
 122E : 92;
 122F : 8D;
 1230 : 6F;
 1231 : 61;
 1232 : 7A;
 1233 : 83;
 1234 : 8D;
 1235 : 8F;
 1236 : 8D;
 1237 : 8E;
 1238 : 7F;
 1239 : 68;
 123A : 4B;
 123B : 6A;
 123C : 78;
 123D : 7D;
 123E : 8E;
 123F : 92;
 1240 : 8A;
 1241 : 8C;
 1242 : 7D;
 1243 : 51;
 1244 : 49;
 1245 : 89;
 1246 : 7F;
 1247 : 8A;
 1248 : 92;
 1249 : 95;
 124A : 91;
 124B : 87;
 124C : 74;
 124D : 4B;
 124E : 74;
 124F : 93;
 1250 : 8D;
 1251 : 94;
 1252 : 94;
 1253 : 96;
 1254 : 8F;
 1255 : 7B;
 1256 : 57;
 1257 : 4C;
 1258 : 7A;
 1259 : 88;
 125A : 97;
 125B : 93;
 125C : 9D;
 125D : 99;
 125E : 80;
 125F : 6B;
 1260 : 64;
 1261 : 87;
 1262 : 80;
 1263 : 90;
 1264 : 99;
 1265 : 92;
 1266 : 93;
 1267 : 87;
 1268 : 74;
 1269 : 56;
 126A : 3F;
 126B : 5D;
 126C : 8A;
 126D : 94;
 126E : 97;
 126F : 96;
 1270 : 87;
 1271 : 6F;
 1272 : 50;
 1273 : 5B;
 1274 : 7B;
 1275 : 86;
 1276 : 96;
 1277 : 92;
 1278 : 90;
 1279 : 8C;
 127A : 7D;
 127B : 57;
 127C : 4C;
 127D : 68;
 127E : 6C;
 127F : 8B;
 1280 : 8F;
 1281 : 94;
 1282 : 8E;
 1283 : 86;
 1284 : 62;
 1285 : 42;
 1286 : 56;
 1287 : 65;
 1288 : 74;
 1289 : 8E;
 128A : 8B;
 128B : 8E;
 128C : 85;
 128D : 75;
 128E : 50;
 128F : 39;
 1290 : 47;
 1291 : 68;
 1292 : 83;
 1293 : 89;
 1294 : 88;
 1295 : 84;
 1296 : 7D;
 1297 : 50;
 1298 : 5A;
 1299 : 6D;
 129A : 89;
 129B : 6D;
 129C : 3D;
 129D : 63;
 129E : 6E;
 129F : 64;
 12A0 : 5E;
 12A1 : 5C;
 12A2 : 62;
 12A3 : 6B;
 12A4 : 64;
 12A5 : 74;
 12A6 : A7;
 12A7 : B1;
 12A8 : B7;
 12A9 : B2;
 12AA : 9A;
 12AB : A2;
 12AC : A2;
 12AD : A6;
 12AE : A1;
 12AF : 9D;
 12B0 : A0;
 12B1 : 9F;
 12B2 : 9C;
 12B3 : 9C;
 12B4 : A2;
 12B5 : A4;
 12B6 : A4;
 12B7 : 9F;
 12B8 : 9B;
 12B9 : 98;
 12BA : 99;
 12BB : 98;
 12BC : 95;
 12BD : 92;
 12BE : 93;
 12BF : 89;
 12C0 : 88;
 12C1 : 89;
 12C2 : 8B;
 12C3 : 8C;
 12C4 : 8D;
 12C5 : 8F;
 12C6 : 91;
 12C7 : 90;
 12C8 : 90;
 12C9 : 90;
 12CA : 91;
 12CB : 92;
 12CC : 93;
 12CD : 94;
 12CE : 95;
 12CF : 98;
 12D0 : 99;
 12D1 : 99;
 12D2 : 99;
 12D3 : 98;
 12D4 : 9B;
 12D5 : 9D;
 12D6 : 9D;
 12D7 : 9D;
 12D8 : 9E;
 12D9 : A0;
 12DA : A0;
 12DB : A1;
 12DC : A2;
 12DD : A4;
 12DE : A5;
 12DF : A6;
 12E0 : A7;
 12E1 : A8;
 12E2 : AA;
 12E3 : A9;
 12E4 : A9;
 12E5 : AA;
 12E6 : AB;
 12E7 : AC;
 12E8 : A9;
 12E9 : AC;
 12EA : B0;
 12EB : AD;
 12EC : AD;
 12ED : BF;
 12EE : D5;
 12EF : C9;
 12F0 : BE;
 12F1 : C6;
 12F2 : C3;
 12F3 : B2;
 12F4 : B3;
 12F5 : B6;
 12F6 : B1;
 12F7 : B2;
 12F8 : B3;
 12F9 : B4;
 12FA : B4;
 12FB : B6;
 12FC : B7;
 12FD : B8;
 12FE : BA;
 12FF : BB;
 1300 : BB;
 1301 : BC;
 1302 : BC;
 1303 : BB;
 1304 : BB;
 1305 : BB;
 1306 : BC;
 1307 : BA;
 1308 : BA;
 1309 : BE;
 130A : C1;
 130B : C1;
 130C : C0;
 130D : C3;
 130E : C7;
 130F : D1;
 1310 : CA;
 1311 : C2;
 1312 : BE;
 1313 : C1;
 1314 : C7;
 1315 : CB;
 1316 : CA;
 1317 : C1;
 1318 : C2;
 1319 : C3;
 131A : C3;
 131B : C4;
 131C : C6;
 131D : C6;
 131E : C6;
 131F : C5;
 1320 : C6;
 1321 : C6;
 1322 : C6;
 1323 : C5;
 1324 : C3;
 1325 : C5;
 1326 : C6;
 1327 : C7;
 1328 : C7;
 1329 : C7;
 132A : C7;
 132B : C6;
 132C : C5;
 132D : C5;
 132E : C6;
 132F : C3;
 1330 : C2;
 1331 : C1;
 1332 : C1;
 1333 : C1;
 1334 : C2;
 1335 : C3;
 1336 : C4;
 1337 : C4;
 1338 : C3;
 1339 : C3;
 133A : C2;
 133B : C2;
 133C : C2;
 133D : C3;
 133E : C3;
 133F : C6;
 1340 : C7;
 1341 : C5;
 1342 : C3;
 1343 : B9;
 1344 : A9;
 1345 : 92;
 1346 : 82;
 1347 : 68;
 1348 : 5B;
 1349 : 4C;
 134A : 40;
 134B : 35;
 134C : 2B;
 134D : 27;
 134E : 29;
 134F : 26;
 1350 : 2D;
 1351 : 18;
 1352 : 11;
 1353 : 18;
 1354 : 10;
 1355 : 1A;
 1356 : 1C;
 1357 : 2D;
 1358 : 2C;
 1359 : 2A;
 135A : 23;
 135B : 0C;
 135C : 0D;
 135D : 14;
 135E : 12;
 135F : 19;
 1360 : 1B;
 1361 : 2C;
 1362 : 2D;
 1363 : 25;
 1364 : 28;
 1365 : 26;
 1366 : 24;
 1367 : 27;
 1368 : 29;
 1369 : 20;
 136A : 2A;
 136B : 28;
 136C : 35;
 136D : 48;
 136E : 54;
 136F : 61;
 1370 : 51;
 1371 : 5B;
 1372 : 73;
 1373 : 8F;
 1374 : AC;
 1375 : B1;
 1376 : A7;
 1377 : A9;
 1378 : A6;
 1379 : 96;
 137A : 56;
 137B : 5F;
 137C : 5E;
 137D : 7F;
 137E : AF;
 137F : A6;
 1380 : A9;
 1381 : A7;
 1382 : 96;
 1383 : 6A;
 1384 : 55;
 1385 : 8E;
 1386 : 7F;
 1387 : A5;
 1388 : A7;
 1389 : A6;
 138A : A7;
 138B : 9F;
 138C : 89;
 138D : 53;
 138E : 89;
 138F : 9D;
 1390 : 9A;
 1391 : A7;
 1392 : A8;
 1393 : A5;
 1394 : 9E;
 1395 : 8F;
 1396 : 6B;
 1397 : 78;
 1398 : 85;
 1399 : 81;
 139A : A7;
 139B : AA;
 139C : A3;
 139D : 9F;
 139E : 97;
 139F : 78;
 13A0 : 74;
 13A1 : 8D;
 13A2 : 8E;
 13A3 : A2;
 13A4 : A4;
 13A5 : AB;
 13A6 : A2;
 13A7 : 98;
 13A8 : 82;
 13A9 : 60;
 13AA : 48;
 13AB : 6E;
 13AC : A4;
 13AD : A9;
 13AE : A4;
 13AF : A1;
 13B0 : 99;
 13B1 : 88;
 13B2 : 5F;
 13B3 : 61;
 13B4 : 84;
 13B5 : 8F;
 13B6 : A7;
 13B7 : A7;
 13B8 : A4;
 13B9 : A1;
 13BA : 95;
 13BB : 70;
 13BC : 67;
 13BD : 7B;
 13BE : 6D;
 13BF : 9D;
 13C0 : A4;
 13C1 : A4;
 13C2 : 9E;
 13C3 : A0;
 13C4 : 81;
 13C5 : 5D;
 13C6 : 70;
 13C7 : 7D;
 13C8 : 8D;
 13C9 : A5;
 13CA : 9F;
 13CB : A6;
 13CC : A0;
 13CD : 91;
 13CE : 66;
 13CF : 64;
 13D0 : 6B;
 13D1 : 85;
 13D2 : 9B;
 13D3 : 9F;
 13D4 : 9C;
 13D5 : 97;
 13D6 : 90;
 13D7 : 69;
 13D8 : 59;
 13D9 : 6D;
 13DA : 8D;
 13DB : 77;
 13DC : 3C;
 13DD : 54;
 13DE : 5F;
 13DF : 5F;
 13E0 : 61;
 13E1 : 5E;
 13E2 : 5D;
 13E3 : 64;
 13E4 : 65;
 13E5 : 76;
 13E6 : A4;
 13E7 : AD;
 13E8 : B0;
 13E9 : 9F;
 13EA : 5F;
 13EB : 61;
 13EC : 6C;
 13ED : 98;
 13EE : A8;
 13EF : A1;
 13F0 : A5;
 13F1 : A4;
 13F2 : 9E;
 13F3 : 9D;
 13F4 : A2;
 13F5 : A4;
 13F6 : A3;
 13F7 : A5;
 13F8 : A1;
 13F9 : A0;
 13FA : A1;
 13FB : 9F;
 13FC : 9A;
 13FD : 95;
 13FE : 94;
 13FF : 87;
 1400 : 88;
 1401 : 8A;
 1402 : 8C;
 1403 : 8D;
 1404 : 8F;
 1405 : 8F;
 1406 : 90;
 1407 : 92;
 1408 : 92;
 1409 : 93;
 140A : 94;
 140B : 94;
 140C : 94;
 140D : 95;
 140E : 96;
 140F : 98;
 1410 : 99;
 1411 : 98;
 1412 : 98;
 1413 : 99;
 1414 : 9C;
 1415 : 9C;
 1416 : 9E;
 1417 : 9E;
 1418 : A0;
 1419 : A1;
 141A : A2;
 141B : A2;
 141C : A3;
 141D : A5;
 141E : A6;
 141F : A4;
 1420 : A8;
 1421 : A6;
 1422 : A3;
 1423 : A7;
 1424 : AA;
 1425 : AB;
 1426 : AC;
 1427 : AA;
 1428 : AE;
 1429 : AC;
 142A : AC;
 142B : B0;
 142C : AF;
 142D : BB;
 142E : D2;
 142F : D2;
 1430 : CB;
 1431 : B8;
 1432 : A3;
 1433 : AF;
 1434 : B5;
 1435 : B8;
 1436 : B6;
 1437 : B2;
 1438 : BA;
 1439 : BA;
 143A : BE;
 143B : BC;
 143C : B7;
 143D : BB;
 143E : B9;
 143F : BB;
 1440 : BC;
 1441 : BA;
 1442 : BA;
 1443 : BD;
 1444 : BD;
 1445 : BE;
 1446 : C3;
 1447 : C5;
 1448 : C0;
 1449 : C0;
 144A : C4;
 144B : C1;
 144C : BC;
 144D : C4;
 144E : CF;
 144F : D9;
 1450 : DA;
 1451 : D4;
 1452 : D0;
 1453 : D4;
 1454 : E0;
 1455 : E5;
 1456 : E3;
 1457 : DB;
 1458 : CB;
 1459 : C0;
 145A : C4;
 145B : C8;
 145C : C4;
 145D : C2;
 145E : C5;
 145F : C8;
 1460 : C6;
 1461 : C6;
 1462 : C6;
 1463 : C5;
 1464 : C5;
 1465 : C5;
 1466 : C9;
 1467 : C6;
 1468 : C4;
 1469 : C4;
 146A : C6;
 146B : C3;
 146C : C2;
 146D : CE;
 146E : DF;
 146F : D2;
 1470 : D6;
 1471 : D1;
 1472 : C8;
 1473 : CF;
 1474 : C8;
 1475 : C6;
 1476 : C2;
 1477 : C1;
 1478 : C4;
 1479 : C3;
 147A : CA;
 147B : C6;
 147C : C5;
 147D : BA;
 147E : B3;
 147F : A1;
 1480 : 8C;
 1481 : 6B;
 1482 : 53;
 1483 : 42;
 1484 : 2B;
 1485 : 14;
 1486 : 0D;
 1487 : 05;
 1488 : 04;
 1489 : 08;
 148A : 1A;
 148B : 1A;
 148C : 0F;
 148D : 15;
 148E : 1C;
 148F : 22;
 1490 : 14;
 1491 : 0F;
 1492 : 15;
 1493 : 1B;
 1494 : 0C;
 1495 : 11;
 1496 : 1A;
 1497 : 13;
 1498 : 17;
 1499 : 14;
 149A : 09;
 149B : 08;
 149C : 09;
 149D : 07;
 149E : 0B;
 149F : 0C;
 14A0 : 15;
 14A1 : 1B;
 14A2 : 1A;
 14A3 : 14;
 14A4 : 14;
 14A5 : 19;
 14A6 : 11;
 14A7 : 13;
 14A8 : 17;
 14A9 : 13;
 14AA : 0C;
 14AB : 0D;
 14AC : 0F;
 14AD : 11;
 14AE : 17;
 14AF : 1A;
 14B0 : 1B;
 14B1 : 1C;
 14B2 : 3A;
 14B3 : 4F;
 14B4 : 56;
 14B5 : 66;
 14B6 : 6B;
 14B7 : 7D;
 14B8 : 88;
 14B9 : 8C;
 14BA : 54;
 14BB : 63;
 14BC : 61;
 14BD : 87;
 14BE : A7;
 14BF : AE;
 14C0 : AF;
 14C1 : B5;
 14C2 : AC;
 14C3 : 7B;
 14C4 : 5B;
 14C5 : 78;
 14C6 : 91;
 14C7 : BD;
 14C8 : BC;
 14C9 : BD;
 14CA : B8;
 14CB : B0;
 14CC : A5;
 14CD : 60;
 14CE : 72;
 14CF : 93;
 14D0 : B0;
 14D1 : BB;
 14D2 : BD;
 14D3 : BF;
 14D4 : B4;
 14D5 : AD;
 14D6 : 84;
 14D7 : 8A;
 14D8 : 7E;
 14D9 : 8C;
 14DA : C5;
 14DB : BF;
 14DC : C0;
 14DD : BB;
 14DE : B5;
 14DF : 8E;
 14E0 : 83;
 14E1 : 7D;
 14E2 : 90;
 14E3 : C0;
 14E4 : BE;
 14E5 : BA;
 14E6 : B9;
 14E7 : AC;
 14E8 : A6;
 14E9 : 60;
 14EA : 3F;
 14EB : 6E;
 14EC : BC;
 14ED : BD;
 14EE : BA;
 14EF : BB;
 14F0 : AF;
 14F1 : A4;
 14F2 : 70;
 14F3 : 60;
 14F4 : 61;
 14F5 : A2;
 14F6 : BB;
 14F7 : BC;
 14F8 : B9;
 14F9 : B4;
 14FA : AD;
 14FB : 89;
 14FC : 63;
 14FD : 78;
 14FE : 90;
 14FF : B4;
 1500 : B9;
 1501 : BA;
 1502 : B3;
 1503 : AD;
 1504 : 9C;
 1505 : 61;
 1506 : 6D;
 1507 : 72;
 1508 : 97;
 1509 : BC;
 150A : B2;
 150B : B6;
 150C : B1;
 150D : AC;
 150E : 7D;
 150F : 86;
 1510 : 97;
 1511 : 8D;
 1512 : AE;
 1513 : AF;
 1514 : B5;
 1515 : A7;
 1516 : A7;
 1517 : 7C;
 1518 : 5E;
 1519 : 69;
 151A : 8C;
 151B : 7D;
 151C : 41;
 151D : 52;
 151E : 67;
 151F : 63;
 1520 : 66;
 1521 : 64;
 1522 : 64;
 1523 : 60;
 1524 : 67;
 1525 : 6F;
 1526 : A6;
 1527 : AF;
 1528 : A9;
 1529 : A3;
 152A : 67;
 152B : 5A;
 152C : 54;
 152D : 5A;
 152E : 8D;
 152F : AA;
 1530 : A5;
 1531 : 9F;
 1532 : 9A;
 1533 : 9D;
 1534 : A0;
 1535 : 9B;
 1536 : A0;
 1537 : 9D;
 1538 : 9D;
 1539 : 9E;
 153A : 9D;
 153B : 9A;
 153C : 9A;
 153D : 9B;
 153E : 99;
 153F : 88;
 1540 : 89;
 1541 : 8A;
 1542 : 8C;
 1543 : 8F;
 1544 : 90;
 1545 : 91;
 1546 : 91;
 1547 : 8F;
 1548 : 8F;
 1549 : 91;
 154A : 92;
 154B : 94;
 154C : 96;
 154D : 97;
 154E : 98;
 154F : 9A;
 1550 : 9A;
 1551 : 9A;
 1552 : 9B;
 1553 : 9D;
 1554 : 9E;
 1555 : 9D;
 1556 : 9E;
 1557 : A0;
 1558 : A1;
 1559 : A1;
 155A : A3;
 155B : A4;
 155C : A4;
 155D : A5;
 155E : A4;
 155F : A4;
 1560 : AA;
 1561 : AB;
 1562 : A7;
 1563 : A6;
 1564 : A7;
 1565 : AA;
 1566 : B0;
 1567 : B0;
 1568 : AF;
 1569 : AE;
 156A : B4;
 156B : BA;
 156C : B5;
 156D : B7;
 156E : C7;
 156F : C2;
 1570 : B4;
 1571 : A6;
 1572 : AC;
 1573 : BA;
 1574 : B5;
 1575 : B1;
 1576 : B9;
 1577 : BD;
 1578 : CC;
 1579 : D4;
 157A : D4;
 157B : C4;
 157C : B5;
 157D : B9;
 157E : BD;
 157F : B7;
 1580 : C2;
 1581 : CB;
 1582 : CC;
 1583 : C8;
 1584 : C2;
 1585 : C2;
 1586 : C8;
 1587 : CA;
 1588 : C8;
 1589 : C3;
 158A : BE;
 158B : C0;
 158C : C9;
 158D : D3;
 158E : D8;
 158F : D6;
 1590 : D9;
 1591 : DC;
 1592 : DD;
 1593 : DD;
 1594 : DA;
 1595 : D4;
 1596 : D0;
 1597 : D2;
 1598 : CA;
 1599 : C2;
 159A : C2;
 159B : C3;
 159C : C4;
 159D : C3;
 159E : C4;
 159F : C6;
 15A0 : C3;
 15A1 : C3;
 15A2 : C8;
 15A3 : CC;
 15A4 : CB;
 15A5 : C7;
 15A6 : C5;
 15A7 : CB;
 15A8 : CA;
 15A9 : C8;
 15AA : C6;
 15AB : C8;
 15AC : CF;
 15AD : D8;
 15AE : DC;
 15AF : DF;
 15B0 : D3;
 15B1 : BF;
 15B2 : A5;
 15B3 : A4;
 15B4 : B0;
 15B5 : C3;
 15B6 : CA;
 15B7 : C8;
 15B8 : C5;
 15B9 : BA;
 15BA : A7;
 15BB : 91;
 15BC : 76;
 15BD : 58;
 15BE : 3E;
 15BF : 2A;
 15C0 : 1D;
 15C1 : 0D;
 15C2 : 02;
 15C3 : 02;
 15C4 : 07;
 15C5 : 11;
 15C6 : 10;
 15C7 : 13;
 15C8 : 0E;
 15C9 : 0A;
 15CA : 08;
 15CB : 12;
 15CC : 0A;
 15CD : 12;
 15CE : 0C;
 15CF : 0C;
 15D0 : 1C;
 15D1 : 1B;
 15D2 : 1C;
 15D3 : 1B;
 15D4 : 1D;
 15D5 : 2F;
 15D6 : 15;
 15D7 : 08;
 15D8 : 11;
 15D9 : 1B;
 15DA : 19;
 15DB : 14;
 15DC : 13;
 15DD : 14;
 15DE : 17;
 15DF : 13;
 15E0 : 08;
 15E1 : 01;
 15E2 : 09;
 15E3 : 11;
 15E4 : 0C;
 15E5 : 0B;
 15E6 : 0C;
 15E7 : 0A;
 15E8 : 10;
 15E9 : 10;
 15EA : 0A;
 15EB : 10;
 15EC : 1F;
 15ED : 21;
 15EE : 14;
 15EF : 1F;
 15F0 : 17;
 15F1 : 12;
 15F2 : 21;
 15F3 : 20;
 15F4 : 0C;
 15F5 : 0B;
 15F6 : 13;
 15F7 : 1F;
 15F8 : 2A;
 15F9 : 39;
 15FA : 45;
 15FB : 45;
 15FC : 44;
 15FD : 51;
 15FE : 77;
 15FF : 90;
 1600 : 98;
 1601 : A2;
 1602 : A1;
 1603 : 74;
 1604 : 5F;
 1605 : 6D;
 1606 : 80;
 1607 : B8;
 1608 : B6;
 1609 : BB;
 160A : BE;
 160B : BC;
 160C : A2;
 160D : 67;
 160E : 71;
 160F : 9D;
 1610 : A8;
 1611 : AB;
 1612 : AF;
 1613 : AA;
 1614 : A4;
 1615 : 96;
 1616 : 7B;
 1617 : 71;
 1618 : 7C;
 1619 : 8E;
 161A : AB;
 161B : AE;
 161C : A9;
 161D : 9F;
 161E : 96;
 161F : 7A;
 1620 : 76;
 1621 : 78;
 1622 : 83;
 1623 : A8;
 1624 : AB;
 1625 : AA;
 1626 : A7;
 1627 : A5;
 1628 : 89;
 1629 : 59;
 162A : 58;
 162B : 69;
 162C : 9F;
 162D : AB;
 162E : AC;
 162F : A9;
 1630 : 9D;
 1631 : 8E;
 1632 : 74;
 1633 : 6D;
 1634 : 60;
 1635 : 93;
 1636 : A9;
 1637 : AB;
 1638 : B2;
 1639 : AA;
 163A : A1;
 163B : 84;
 163C : 63;
 163D : 80;
 163E : 86;
 163F : A8;
 1640 : A8;
 1641 : A9;
 1642 : AD;
 1643 : AB;
 1644 : 98;
 1645 : 5E;
 1646 : 6E;
 1647 : 71;
 1648 : 8C;
 1649 : B0;
 164A : AE;
 164B : B2;
 164C : A8;
 164D : A0;
 164E : 72;
 164F : 6B;
 1650 : 89;
 1651 : 80;
 1652 : AF;
 1653 : AF;
 1654 : A8;
 1655 : A8;
 1656 : AA;
 1657 : 81;
 1658 : 68;
 1659 : 6C;
 165A : 80;
 165B : 73;
 165C : 48;
 165D : 58;
 165E : 5C;
 165F : 61;
 1660 : 4D;
 1661 : 58;
 1662 : 6E;
 1663 : 61;
 1664 : 67;
 1665 : 76;
 1666 : A1;
 1667 : A9;
 1668 : A8;
 1669 : B8;
 166A : 8E;
 166B : 55;
 166C : 57;
 166D : 5B;
 166E : 51;
 166F : 80;
 1670 : A4;
 1671 : A6;
 1672 : A0;
 1673 : A1;
 1674 : 9E;
 1675 : A2;
 1676 : 9B;
 1677 : A0;
 1678 : 9C;
 1679 : 98;
 167A : 99;
 167B : 99;
 167C : 99;
 167D : 98;
 167E : 98;
 167F : 8C;
 1680 : 8D;
 1681 : 8E;
 1682 : 8F;
 1683 : 91;
 1684 : 92;
 1685 : 93;
 1686 : 94;
 1687 : 96;
 1688 : 97;
 1689 : 97;
 168A : 96;
 168B : 97;
 168C : 98;
 168D : 99;
 168E : 99;
 168F : 99;
 1690 : 9A;
 1691 : 9C;
 1692 : 9D;
 1693 : 9E;
 1694 : 9E;
 1695 : 9E;
 1696 : 9E;
 1697 : A0;
 1698 : 9F;
 1699 : A1;
 169A : A2;
 169B : A4;
 169C : A6;
 169D : A6;
 169E : A5;
 169F : A7;
 16A0 : A7;
 16A1 : A7;
 16A2 : A9;
 16A3 : AE;
 16A4 : AE;
 16A5 : AA;
 16A6 : A9;
 16A7 : AA;
 16A8 : BB;
 16A9 : C5;
 16AA : C2;
 16AB : B9;
 16AC : B1;
 16AD : B7;
 16AE : CA;
 16AF : B1;
 16B0 : BC;
 16B1 : B9;
 16B2 : B1;
 16B3 : B1;
 16B4 : B7;
 16B5 : B6;
 16B6 : B4;
 16B7 : C5;
 16B8 : CF;
 16B9 : D3;
 16BA : D0;
 16BB : C2;
 16BC : B8;
 16BD : BB;
 16BE : BE;
 16BF : C2;
 16C0 : CA;
 16C1 : D2;
 16C2 : D9;
 16C3 : DA;
 16C4 : D3;
 16C5 : CB;
 16C6 : CA;
 16C7 : C1;
 16C8 : C1;
 16C9 : BD;
 16CA : BC;
 16CB : C7;
 16CC : D7;
 16CD : DF;
 16CE : E0;
 16CF : E0;
 16D0 : DB;
 16D1 : D9;
 16D2 : D8;
 16D3 : D4;
 16D4 : CB;
 16D5 : C8;
 16D6 : CB;
 16D7 : CC;
 16D8 : CB;
 16D9 : C7;
 16DA : C2;
 16DB : C1;
 16DC : C3;
 16DD : C4;
 16DE : C1;
 16DF : C0;
 16E0 : C0;
 16E1 : C1;
 16E2 : C2;
 16E3 : C4;
 16E4 : C5;
 16E5 : C8;
 16E6 : CA;
 16E7 : CB;
 16E8 : CE;
 16E9 : CC;
 16EA : C8;
 16EB : CB;
 16EC : D2;
 16ED : D4;
 16EE : D3;
 16EF : CB;
 16F0 : C8;
 16F1 : A9;
 16F2 : 6F;
 16F3 : 61;
 16F4 : 6B;
 16F5 : 7F;
 16F6 : 96;
 16F7 : 91;
 16F8 : 6C;
 16F9 : 49;
 16FA : 2F;
 16FB : 29;
 16FC : 1C;
 16FD : 1D;
 16FE : 1D;
 16FF : 23;
 1700 : 16;
 1701 : 12;
 1702 : 0E;
 1703 : 06;
 1704 : 0D;
 1705 : 12;
 1706 : 09;
 1707 : 13;
 1708 : 11;
 1709 : 11;
 170A : 13;
 170B : 14;
 170C : 0A;
 170D : 0E;
 170E : 0E;
 170F : 07;
 1710 : 1A;
 1711 : 18;
 1712 : 0E;
 1713 : 0B;
 1714 : 11;
 1715 : 29;
 1716 : 19;
 1717 : 18;
 1718 : 17;
 1719 : 19;
 171A : 15;
 171B : 12;
 171C : 1B;
 171D : 20;
 171E : 16;
 171F : 21;
 1720 : 18;
 1721 : 07;
 1722 : 05;
 1723 : 0B;
 1724 : 0F;
 1725 : 1B;
 1726 : 26;
 1727 : 27;
 1728 : 12;
 1729 : 06;
 172A : 0A;
 172B : 15;
 172C : 20;
 172D : 1E;
 172E : 11;
 172F : 1F;
 1730 : 1C;
 1731 : 19;
 1732 : 1D;
 1733 : 20;
 1734 : 1B;
 1735 : 19;
 1736 : 1C;
 1737 : 1D;
 1738 : 17;
 1739 : 19;
 173A : 19;
 173B : 25;
 173C : 34;
 173D : 38;
 173E : 34;
 173F : 36;
 1740 : 46;
 1741 : 55;
 1742 : 5E;
 1743 : 47;
 1744 : 4F;
 1745 : 5E;
 1746 : 7A;
 1747 : AB;
 1748 : B0;
 1749 : AD;
 174A : 9D;
 174B : 92;
 174C : 80;
 174D : 72;
 174E : 91;
 174F : 96;
 1750 : 9B;
 1751 : 99;
 1752 : 98;
 1753 : 8D;
 1754 : 8F;
 1755 : 7D;
 1756 : 6B;
 1757 : 6C;
 1758 : 79;
 1759 : 8E;
 175A : 90;
 175B : 92;
 175C : 92;
 175D : 8E;
 175E : 85;
 175F : 6B;
 1760 : 6A;
 1761 : 7B;
 1762 : 83;
 1763 : 93;
 1764 : 94;
 1765 : 99;
 1766 : 9B;
 1767 : 8F;
 1768 : 75;
 1769 : 56;
 176A : 71;
 176B : 6E;
 176C : 91;
 176D : 98;
 176E : 94;
 176F : 99;
 1770 : 93;
 1771 : 7B;
 1772 : 6B;
 1773 : 6F;
 1774 : 69;
 1775 : 8D;
 1776 : 99;
 1777 : 9E;
 1778 : A4;
 1779 : 93;
 177A : 8A;
 177B : 78;
 177C : 60;
 177D : 8E;
 177E : 91;
 177F : 97;
 1780 : 98;
 1781 : 9A;
 1782 : 99;
 1783 : 8F;
 1784 : 83;
 1785 : 60;
 1786 : 7F;
 1787 : 70;
 1788 : 7F;
 1789 : 9C;
 178A : 96;
 178B : 99;
 178C : 92;
 178D : 89;
 178E : 58;
 178F : 67;
 1790 : 83;
 1791 : 65;
 1792 : 92;
 1793 : 98;
 1794 : 90;
 1795 : 98;
 1796 : 93;
 1797 : 74;
 1798 : 61;
 1799 : 69;
 179A : 71;
 179B : 62;
 179C : 41;
 179D : 56;
 179E : 57;
 179F : 69;
 17A0 : 4A;
 17A1 : 54;
 17A2 : 70;
 17A3 : 64;
 17A4 : 67;
 17A5 : 6E;
 17A6 : 8B;
 17A7 : A0;
 17A8 : 94;
 17A9 : 99;
 17AA : 9B;
 17AB : 6C;
 17AC : 57;
 17AD : 5C;
 17AE : 57;
 17AF : 51;
 17B0 : 66;
 17B1 : 91;
 17B2 : 96;
 17B3 : 8C;
 17B4 : 94;
 17B5 : 93;
 17B6 : 91;
 17B7 : 92;
 17B8 : 93;
 17B9 : 93;
 17BA : 97;
 17BB : 99;
 17BC : 95;
 17BD : 8E;
 17BE : 8F;
 17BF : 98;
 17C0 : 98;
 17C1 : 98;
 17C2 : 99;
 17C3 : 9B;
 17C4 : 9C;
 17C5 : 9B;
 17C6 : 9B;
 17C7 : A0;
 17C8 : 9E;
 17C9 : 9E;
 17CA : 9C;
 17CB : 9C;
 17CC : 9B;
 17CD : 9B;
 17CE : 9B;
 17CF : 9B;
 17D0 : 9D;
 17D1 : 9E;
 17D2 : 9F;
 17D3 : 9F;
 17D4 : A0;
 17D5 : A0;
 17D6 : A1;
 17D7 : A5;
 17D8 : A4;
 17D9 : A4;
 17DA : A5;
 17DB : A6;
 17DC : A7;
 17DD : A7;
 17DE : A7;
 17DF : A7;
 17E0 : A5;
 17E1 : A6;
 17E2 : B0;
 17E3 : BB;
 17E4 : BB;
 17E5 : B2;
 17E6 : AD;
 17E7 : B6;
 17E8 : B8;
 17E9 : B3;
 17EA : AE;
 17EB : B4;
 17EC : B6;
 17ED : AE;
 17EE : A5;
 17EF : B2;
 17F0 : BF;
 17F1 : BE;
 17F2 : B9;
 17F3 : AF;
 17F4 : B4;
 17F5 : B8;
 17F6 : C4;
 17F7 : CA;
 17F8 : C9;
 17F9 : C5;
 17FA : C1;
 17FB : BE;
 17FC : BA;
 17FD : BB;
 17FE : BB;
 17FF : C4;
 1800 : C4;
 1801 : C4;
 1802 : CB;
 1803 : D2;
 1804 : CE;
 1805 : C3;
 1806 : BD;
 1807 : BE;
 1808 : BA;
 1809 : BC;
 180A : C4;
 180B : CF;
 180C : D3;
 180D : D2;
 180E : D3;
 180F : D6;
 1810 : D0;
 1811 : D0;
 1812 : D1;
 1813 : CF;
 1814 : C9;
 1815 : C5;
 1816 : C8;
 1817 : C4;
 1818 : C8;
 1819 : C9;
 181A : C6;
 181B : C7;
 181C : C9;
 181D : CC;
 181E : CC;
 181F : CB;
 1820 : CC;
 1821 : CD;
 1822 : CB;
 1823 : CA;
 1824 : CB;
 1825 : CF;
 1826 : D4;
 1827 : CD;
 1828 : C9;
 1829 : C3;
 182A : C2;
 182B : C4;
 182C : C5;
 182D : C3;
 182E : C0;
 182F : C3;
 1830 : BF;
 1831 : B8;
 1832 : 7B;
 1833 : 47;
 1834 : 36;
 1835 : 29;
 1836 : 1B;
 1837 : 17;
 1838 : 0B;
 1839 : 0E;
 183A : 19;
 183B : 1E;
 183C : 12;
 183D : 16;
 183E : 22;
 183F : 23;
 1840 : 0F;
 1841 : 07;
 1842 : 0A;
 1843 : 0A;
 1844 : 0C;
 1845 : 10;
 1846 : 0D;
 1847 : 03;
 1848 : 07;
 1849 : 08;
 184A : 19;
 184B : 16;
 184C : 17;
 184D : 0C;
 184E : 0B;
 184F : 16;
 1850 : 1E;
 1851 : 1E;
 1852 : 17;
 1853 : 22;
 1854 : 1C;
 1855 : 16;
 1856 : 1D;
 1857 : 1D;
 1858 : 0F;
 1859 : 0D;
 185A : 17;
 185B : 16;
 185C : 17;
 185D : 15;
 185E : 04;
 185F : 07;
 1860 : 0F;
 1861 : 12;
 1862 : 11;
 1863 : 0C;
 1864 : 0D;
 1865 : 11;
 1866 : 0B;
 1867 : 19;
 1868 : 16;
 1869 : 15;
 186A : 1E;
 186B : 2B;
 186C : 30;
 186D : 23;
 186E : 10;
 186F : 13;
 1870 : 1A;
 1871 : 1F;
 1872 : 1C;
 1873 : 23;
 1874 : 2B;
 1875 : 27;
 1876 : 20;
 1877 : 2B;
 1878 : 28;
 1879 : 35;
 187A : 2C;
 187B : 34;
 187C : 2B;
 187D : 32;
 187E : 2E;
 187F : 2E;
 1880 : 2D;
 1881 : 2E;
 1882 : 35;
 1883 : 33;
 1884 : 3E;
 1885 : 3A;
 1886 : 48;
 1887 : 85;
 1888 : 9F;
 1889 : B7;
 188A : BB;
 188B : BA;
 188C : 9E;
 188D : 79;
 188E : 8E;
 188F : 9C;
 1890 : B1;
 1891 : BA;
 1892 : B8;
 1893 : B1;
 1894 : B3;
 1895 : 9E;
 1896 : 7B;
 1897 : 6B;
 1898 : 70;
 1899 : 98;
 189A : A6;
 189B : A6;
 189C : AB;
 189D : A8;
 189E : 98;
 189F : 7F;
 18A0 : 6C;
 18A1 : 7B;
 18A2 : 93;
 18A3 : AD;
 18A4 : B3;
 18A5 : B1;
 18A6 : AE;
 18A7 : AA;
 18A8 : 99;
 18A9 : 5F;
 18AA : 67;
 18AB : 6E;
 18AC : A0;
 18AD : AE;
 18AE : B2;
 18AF : AB;
 18B0 : A8;
 18B1 : 8E;
 18B2 : 78;
 18B3 : 82;
 18B4 : 89;
 18B5 : 9E;
 18B6 : AA;
 18B7 : AD;
 18B8 : B5;
 18B9 : B3;
 18BA : A8;
 18BB : 84;
 18BC : 56;
 18BD : 80;
 18BE : 8D;
 18BF : A2;
 18C0 : AB;
 18C1 : AF;
 18C2 : B1;
 18C3 : AC;
 18C4 : A1;
 18C5 : 75;
 18C6 : 84;
 18C7 : 6C;
 18C8 : 85;
 18C9 : B2;
 18CA : AE;
 18CB : B0;
 18CC : AD;
 18CD : A1;
 18CE : 6A;
 18CF : 51;
 18D0 : 84;
 18D1 : 79;
 18D2 : AB;
 18D3 : AD;
 18D4 : A5;
 18D5 : A8;
 18D6 : 9B;
 18D7 : 82;
 18D8 : 66;
 18D9 : 70;
 18DA : 7E;
 18DB : 6A;
 18DC : 44;
 18DD : 5B;
 18DE : 65;
 18DF : 68;
 18E0 : 5D;
 18E1 : 5B;
 18E2 : 66;
 18E3 : 67;
 18E4 : 6E;
 18E5 : 6D;
 18E6 : 94;
 18E7 : 98;
 18E8 : 9C;
 18E9 : 95;
 18EA : A0;
 18EB : 93;
 18EC : 67;
 18ED : 5F;
 18EE : 55;
 18EF : 54;
 18F0 : 54;
 18F1 : 70;
 18F2 : 92;
 18F3 : 91;
 18F4 : 88;
 18F5 : 8E;
 18F6 : 8B;
 18F7 : 87;
 18F8 : 89;
 18F9 : 87;
 18FA : 85;
 18FB : 86;
 18FC : 84;
 18FD : 84;
 18FE : 87;
 18FF : 92;
 1900 : 93;
 1901 : 94;
 1902 : 95;
 1903 : 96;
 1904 : 97;
 1905 : 98;
 1906 : 98;
 1907 : 9E;
 1908 : 9E;
 1909 : 9E;
 190A : 9E;
 190B : 9E;
 190C : 9F;
 190D : 9F;
 190E : 9F;
 190F : 9E;
 1910 : 9E;
 1911 : 9F;
 1912 : A0;
 1913 : A1;
 1914 : A2;
 1915 : A4;
 1916 : A5;
 1917 : A4;
 1918 : A5;
 1919 : A4;
 191A : A3;
 191B : A2;
 191C : A3;
 191D : A4;
 191E : A6;
 191F : AB;
 1920 : AF;
 1921 : B3;
 1922 : B8;
 1923 : BA;
 1924 : B4;
 1925 : AE;
 1926 : AF;
 1927 : AE;
 1928 : B1;
 1929 : B1;
 192A : AD;
 192B : AF;
 192C : B1;
 192D : AF;
 192E : AD;
 192F : C0;
 1930 : BC;
 1931 : B5;
 1932 : BA;
 1933 : B3;
 1934 : B2;
 1935 : B3;
 1936 : C0;
 1937 : C0;
 1938 : BE;
 1939 : BF;
 193A : BD;
 193B : BC;
 193C : BD;
 193D : BD;
 193E : BE;
 193F : BE;
 1940 : BF;
 1941 : BF;
 1942 : C5;
 1943 : CA;
 1944 : CA;
 1945 : C6;
 1946 : C7;
 1947 : C8;
 1948 : C3;
 1949 : C6;
 194A : D1;
 194B : D6;
 194C : D1;
 194D : CC;
 194E : CD;
 194F : C7;
 1950 : C3;
 1951 : C2;
 1952 : C3;
 1953 : C2;
 1954 : BD;
 1955 : B9;
 1956 : B7;
 1957 : B4;
 1958 : B4;
 1959 : B3;
 195A : B0;
 195B : AD;
 195C : A8;
 195D : A7;
 195E : A6;
 195F : A0;
 1960 : 9F;
 1961 : 9B;
 1962 : 99;
 1963 : 97;
 1964 : 94;
 1965 : 8F;
 1966 : 8A;
 1967 : 8F;
 1968 : 8E;
 1969 : 8D;
 196A : 8A;
 196B : 8A;
 196C : 8D;
 196D : 92;
 196E : 94;
 196F : 88;
 1970 : 70;
 1971 : 4C;
 1972 : 16;
 1973 : 0A;
 1974 : 0A;
 1975 : 07;
 1976 : 11;
 1977 : 1C;
 1978 : 19;
 1979 : 19;
 197A : 1D;
 197B : 18;
 197C : 14;
 197D : 10;
 197E : 14;
 197F : 18;
 1980 : 0F;
 1981 : 0A;
 1982 : 0F;
 1983 : 15;
 1984 : 10;
 1985 : 0B;
 1986 : 0B;
 1987 : 0B;
 1988 : 0B;
 1989 : 03;
 198A : 0C;
 198B : 17;
 198C : 30;
 198D : 25;
 198E : 18;
 198F : 1E;
 1990 : 1D;
 1991 : 1D;
 1992 : 1C;
 1993 : 30;
 1994 : 2C;
 1995 : 1B;
 1996 : 19;
 1997 : 1B;
 1998 : 0A;
 1999 : 0B;
 199A : 21;
 199B : 1D;
 199C : 0D;
 199D : 0E;
 199E : 0D;
 199F : 13;
 19A0 : 0D;
 19A1 : 0D;
 19A2 : 0F;
 19A3 : 09;
 19A4 : 0F;
 19A5 : 15;
 19A6 : 05;
 19A7 : 0B;
 19A8 : 2B;
 19A9 : 32;
 19AA : 1F;
 19AB : 1E;
 19AC : 29;
 19AD : 25;
 19AE : 17;
 19AF : 13;
 19B0 : 15;
 19B1 : 15;
 19B2 : 0A;
 19B3 : 08;
 19B4 : 18;
 19B5 : 25;
 19B6 : 2A;
 19B7 : 27;
 19B8 : 1C;
 19B9 : 0F;
 19BA : 1D;
 19BB : 2D;
 19BC : 39;
 19BD : 35;
 19BE : 31;
 19BF : 29;
 19C0 : 28;
 19C1 : 2F;
 19C2 : 31;
 19C3 : 31;
 19C4 : 30;
 19C5 : 2A;
 19C6 : 38;
 19C7 : 3F;
 19C8 : 42;
 19C9 : 4C;
 19CA : 6A;
 19CB : 9A;
 19CC : A2;
 19CD : 71;
 19CE : 7F;
 19CF : A4;
 19D0 : BF;
 19D1 : C1;
 19D2 : B8;
 19D3 : B1;
 19D4 : AC;
 19D5 : A5;
 19D6 : 7B;
 19D7 : 62;
 19D8 : 6E;
 19D9 : 98;
 19DA : B2;
 19DB : AF;
 19DC : B4;
 19DD : A9;
 19DE : 9C;
 19DF : 86;
 19E0 : 70;
 19E1 : 7A;
 19E2 : 98;
 19E3 : B5;
 19E4 : BD;
 19E5 : BB;
 19E6 : B4;
 19E7 : AB;
 19E8 : A3;
 19E9 : 65;
 19EA : 67;
 19EB : 74;
 19EC : A9;
 19ED : B3;
 19EE : B3;
 19EF : B5;
 19F0 : AB;
 19F1 : 97;
 19F2 : 7C;
 19F3 : 87;
 19F4 : 93;
 19F5 : 9A;
 19F6 : B3;
 19F7 : BB;
 19F8 : B5;
 19F9 : B9;
 19FA : B4;
 19FB : 9A;
 19FC : 6F;
 19FD : 87;
 19FE : 8C;
 19FF : A8;
 1A00 : B2;
 1A01 : B2;
 1A02 : B2;
 1A03 : AD;
 1A04 : 9F;
 1A05 : 73;
 1A06 : 7E;
 1A07 : 7B;
 1A08 : 8E;
 1A09 : BD;
 1A0A : BA;
 1A0B : B4;
 1A0C : B0;
 1A0D : A8;
 1A0E : 77;
 1A0F : 5A;
 1A10 : 83;
 1A11 : 7D;
 1A12 : A8;
 1A13 : A9;
 1A14 : AA;
 1A15 : AC;
 1A16 : A4;
 1A17 : 8E;
 1A18 : 67;
 1A19 : 6E;
 1A1A : 7F;
 1A1B : 6A;
 1A1C : 3E;
 1A1D : 52;
 1A1E : 62;
 1A1F : 61;
 1A20 : 6C;
 1A21 : 6E;
 1A22 : 6D;
 1A23 : 6B;
 1A24 : 6E;
 1A25 : 6A;
 1A26 : 97;
 1A27 : A5;
 1A28 : A2;
 1A29 : 9F;
 1A2A : 9E;
 1A2B : A0;
 1A2C : 6F;
 1A2D : 6B;
 1A2E : 58;
 1A2F : 55;
 1A30 : 57;
 1A31 : 5A;
 1A32 : 76;
 1A33 : 96;
 1A34 : 96;
 1A35 : 92;
 1A36 : 96;
 1A37 : 92;
 1A38 : 93;
 1A39 : 92;
 1A3A : 8E;
 1A3B : 8F;
 1A3C : 8E;
 1A3D : 8C;
 1A3E : 8A;
 1A3F : 94;
 1A40 : 95;
 1A41 : 96;
 1A42 : 97;
 1A43 : 99;
 1A44 : 9B;
 1A45 : 9D;
 1A46 : 9D;
 1A47 : 9A;
 1A48 : 9A;
 1A49 : 9B;
 1A4A : 9C;
 1A4B : 9C;
 1A4C : 9D;
 1A4D : 9D;
 1A4E : 9D;
 1A4F : 9D;
 1A50 : 9D;
 1A51 : 9D;
 1A52 : 9D;
 1A53 : A0;
 1A54 : A2;
 1A55 : A4;
 1A56 : A5;
 1A57 : A2;
 1A58 : A3;
 1A59 : A4;
 1A5A : A5;
 1A5B : A5;
 1A5C : A5;
 1A5D : A8;
 1A5E : AA;
 1A5F : A9;
 1A60 : AF;
 1A61 : B3;
 1A62 : B2;
 1A63 : AF;
 1A64 : A9;
 1A65 : A8;
 1A66 : AC;
 1A67 : AF;
 1A68 : AB;
 1A69 : AD;
 1A6A : B5;
 1A6B : B8;
 1A6C : B6;
 1A6D : B6;
 1A6E : BA;
 1A6F : B9;
 1A70 : BA;
 1A71 : B7;
 1A72 : B5;
 1A73 : B6;
 1A74 : BD;
 1A75 : BD;
 1A76 : B8;
 1A77 : B9;
 1A78 : B7;
 1A79 : BA;
 1A7A : B9;
 1A7B : BA;
 1A7C : BA;
 1A7D : B6;
 1A7E : B7;
 1A7F : B9;
 1A80 : B9;
 1A81 : B5;
 1A82 : B3;
 1A83 : B0;
 1A84 : AA;
 1A85 : A6;
 1A86 : A7;
 1A87 : A5;
 1A88 : A3;
 1A89 : 9E;
 1A8A : 9B;
 1A8B : 97;
 1A8C : 92;
 1A8D : 8E;
 1A8E : 8D;
 1A8F : 8E;
 1A90 : 8A;
 1A91 : 84;
 1A92 : 81;
 1A93 : 82;
 1A94 : 83;
 1A95 : 84;
 1A96 : 81;
 1A97 : 80;
 1A98 : 7F;
 1A99 : 80;
 1A9A : 84;
 1A9B : 87;
 1A9C : 85;
 1A9D : 86;
 1A9E : 88;
 1A9F : 89;
 1AA0 : 8B;
 1AA1 : 8D;
 1AA2 : 91;
 1AA3 : 96;
 1AA4 : 9A;
 1AA5 : 9A;
 1AA6 : 99;
 1AA7 : 9D;
 1AA8 : A2;
 1AA9 : A7;
 1AAA : AB;
 1AAB : AD;
 1AAC : A2;
 1AAD : 83;
 1AAE : 65;
 1AAF : 39;
 1AB0 : 16;
 1AB1 : 0F;
 1AB2 : 0D;
 1AB3 : 10;
 1AB4 : 12;
 1AB5 : 13;
 1AB6 : 0F;
 1AB7 : 0E;
 1AB8 : 12;
 1AB9 : 13;
 1ABA : 1E;
 1ABB : 17;
 1ABC : 14;
 1ABD : 0E;
 1ABE : 11;
 1ABF : 05;
 1AC0 : 0E;
 1AC1 : 10;
 1AC2 : 0F;
 1AC3 : 11;
 1AC4 : 0D;
 1AC5 : 07;
 1AC6 : 09;
 1AC7 : 06;
 1AC8 : 0C;
 1AC9 : 19;
 1ACA : 18;
 1ACB : 21;
 1ACC : 22;
 1ACD : 18;
 1ACE : 0A;
 1ACF : 16;
 1AD0 : 11;
 1AD1 : 0E;
 1AD2 : 13;
 1AD3 : 18;
 1AD4 : 16;
 1AD5 : 1F;
 1AD6 : 15;
 1AD7 : 1F;
 1AD8 : 1A;
 1AD9 : 10;
 1ADA : 15;
 1ADB : 12;
 1ADC : 0A;
 1ADD : 12;
 1ADE : 14;
 1ADF : 13;
 1AE0 : 1C;
 1AE1 : 26;
 1AE2 : 24;
 1AE3 : 19;
 1AE4 : 20;
 1AE5 : 2A;
 1AE6 : 18;
 1AE7 : 0B;
 1AE8 : 1B;
 1AE9 : 21;
 1AEA : 1A;
 1AEB : 13;
 1AEC : 13;
 1AED : 19;
 1AEE : 24;
 1AEF : 0E;
 1AF0 : 14;
 1AF1 : 1A;
 1AF2 : 13;
 1AF3 : 0E;
 1AF4 : 1C;
 1AF5 : 24;
 1AF6 : 12;
 1AF7 : 0F;
 1AF8 : 1C;
 1AF9 : 16;
 1AFA : 19;
 1AFB : 21;
 1AFC : 3A;
 1AFD : 36;
 1AFE : 2B;
 1AFF : 25;
 1B00 : 18;
 1B01 : 1C;
 1B02 : 2F;
 1B03 : 45;
 1B04 : 43;
 1B05 : 30;
 1B06 : 25;
 1B07 : 2B;
 1B08 : 37;
 1B09 : 35;
 1B0A : 28;
 1B0B : 3A;
 1B0C : 57;
 1B0D : 4C;
 1B0E : 6C;
 1B0F : 91;
 1B10 : B3;
 1B11 : C2;
 1B12 : C2;
 1B13 : BA;
 1B14 : A7;
 1B15 : A3;
 1B16 : 7E;
 1B17 : 75;
 1B18 : 8C;
 1B19 : 9E;
 1B1A : B1;
 1B1B : B0;
 1B1C : B4;
 1B1D : A5;
 1B1E : A5;
 1B1F : 87;
 1B20 : 85;
 1B21 : 89;
 1B22 : 9F;
 1B23 : B3;
 1B24 : B9;
 1B25 : BC;
 1B26 : B9;
 1B27 : B6;
 1B28 : A2;
 1B29 : 6F;
 1B2A : 75;
 1B2B : 7A;
 1B2C : A9;
 1B2D : B7;
 1B2E : BA;
 1B2F : B8;
 1B30 : B1;
 1B31 : 9E;
 1B32 : 71;
 1B33 : 7A;
 1B34 : 93;
 1B35 : 9A;
 1B36 : B5;
 1B37 : B1;
 1B38 : B0;
 1B39 : B7;
 1B3A : A5;
 1B3B : 7E;
 1B3C : 5D;
 1B3D : 7E;
 1B3E : 8E;
 1B3F : 9B;
 1B40 : A5;
 1B41 : A2;
 1B42 : A4;
 1B43 : A0;
 1B44 : 8C;
 1B45 : 62;
 1B46 : 79;
 1B47 : 7C;
 1B48 : 72;
 1B49 : 94;
 1B4A : 95;
 1B4B : 98;
 1B4C : 9D;
 1B4D : A1;
 1B4E : 7B;
 1B4F : 6A;
 1B50 : 7B;
 1B51 : 75;
 1B52 : A7;
 1B53 : AE;
 1B54 : B0;
 1B55 : AA;
 1B56 : A5;
 1B57 : 86;
 1B58 : 65;
 1B59 : 72;
 1B5A : 7A;
 1B5B : 5F;
 1B5C : 3C;
 1B5D : 57;
 1B5E : 69;
 1B5F : 6A;
 1B60 : 69;
 1B61 : 66;
 1B62 : 67;
 1B63 : 61;
 1B64 : 69;
 1B65 : 6A;
 1B66 : 91;
 1B67 : A5;
 1B68 : 97;
 1B69 : 9B;
 1B6A : 9C;
 1B6B : A5;
 1B6C : 6D;
 1B6D : 63;
 1B6E : 68;
 1B6F : 55;
[...]
 125FE : D3;
 125FF : D3;
 12600 : CA;
 12601 : 9B;
 12602 : 51;
 12603 : 3A;
 12604 : 39;
 12605 : 39;
 12606 : 36;
 12607 : 38;
 12608 : 36;
 12609 : 32;
 1260A : 2D;
 1260B : 2A;
 1260C : 2A;
 1260D : 2B;
 1260E : 2C;
 1260F : 30;
 12610 : 35;
 12611 : 3A;
 12612 : 39;
 12613 : 38;
 12614 : 37;
 12615 : 37;
 12616 : 36;
 12617 : 37;
 12618 : 36;
 12619 : 36;
 1261A : 35;
 1261B : 34;
 1261C : 33;
 1261D : 31;
 1261E : 30;
 1261F : 30;
 12620 : 30;
 12621 : 30;
 12622 : 2F;
 12623 : 2F;
 12624 : 2F;
 12625 : 2E;
 12626 : 2E;
 12627 : 2A;
 12628 : 2D;
 12629 : 29;
 1262A : 2E;
 1262B : 30;
 1262C : 26;
 1262D : 24;
 1262E : 2C;
 1262F : 22;
 12630 : 1D;
 12631 : 18;
 12632 : 10;
 12633 : 01;
 12634 : 0A;
 12635 : 09;
 12636 : 20;
 12637 : 16;
 12638 : 17;
 12639 : 13;
 1263A : 0F;
 1263B : 21;
 1263C : 2A;
 1263D : 2A;
 1263E : 29;
 1263F : 35;
 12640 : 27;
 12641 : 2A;
 12642 : 2C;
 12643 : 20;
 12644 : 20;
 12645 : 22;
 12646 : 18;
 12647 : 16;
 12648 : 0F;
 12649 : 19;
 1264A : 1E;
 1264B : 18;
 1264C : 20;
 1264D : 29;
 1264E : 21;
 1264F : 1E;
 12650 : 33;
 12651 : 2C;
 12652 : 2A;
 12653 : 39;
 12654 : 3C;
 12655 : 2E;
 12656 : 39;
 12657 : 26;
 12658 : 21;
 12659 : 22;
 1265A : 34;
 1265B : 34;
 1265C : 37;
 1265D : 37;
 1265E : 31;
 1265F : 3B;
 12660 : 30;
 12661 : 29;
 12662 : 10;
 12663 : 16;
 12664 : 1E;
 12665 : 1A;
 12666 : 2B;
 12667 : 25;
 12668 : 24;
 12669 : 32;
 1266A : 40;
 1266B : 2F;
 1266C : 33;
 1266D : 3C;
 1266E : 3F;
 1266F : 3D;
 12670 : 3C;
 12671 : 3A;
 12672 : 37;
 12673 : 37;
 12674 : 39;
 12675 : 39;
 12676 : 38;
 12677 : 34;
 12678 : 35;
 12679 : 34;
 1267A : 31;
 1267B : 2E;
 1267C : 2E;
 1267D : 33;
 1267E : 38;
 1267F : 3E;
 12680 : 3E;
 12681 : 3E;
 12682 : 3F;
 12683 : 3F;
 12684 : 3F;
 12685 : 3D;
 12686 : 3C;
 12687 : 3A;
 12688 : 3B;
 12689 : 3B;
 1268A : 39;
 1268B : 37;
 1268C : 37;
 1268D : 37;
 1268E : 38;
 1268F : 39;
 12690 : 3D;
 12691 : 40;
 12692 : 40;
 12693 : 41;
 12694 : 40;
 12695 : 37;
 12696 : 2C;
 12697 : 1C;
 12698 : 30;
 12699 : 69;
 1269A : 73;
 1269B : 8C;
 1269C : 9C;
 1269D : 93;
 1269E : 8D;
 1269F : 97;
 126A0 : A1;
 126A1 : AD;
 126A2 : B3;
 126A3 : BA;
 126A4 : BD;
 126A5 : C2;
 126A6 : C7;
 126A7 : CC;
 126A8 : CF;
 126A9 : D1;
 126AA : D4;
 126AB : D4;
 126AC : D6;
 126AD : D7;
 126AE : D8;
 126AF : DA;
 126B0 : DA;
 126B1 : DA;
 126B2 : D9;
 126B3 : D7;
 126B4 : D6;
 126B5 : D5;
 126B6 : D5;
 126B7 : D3;
 126B8 : D3;
 126B9 : D2;
 126BA : D0;
 126BB : CD;
 126BC : CB;
 126BD : C8;
 126BE : C3;
 126BF : C0;
 126C0 : BD;
 126C1 : B9;
 126C2 : BB;
 126C3 : BD;
 126C4 : BE;
 126C5 : C0;
 126C6 : C1;
 126C7 : C4;
 126C8 : C8;
 126C9 : CA;
 126CA : C9;
 126CB : C9;
 126CC : C7;
 126CD : C2;
 126CE : BD;
 126CF : B8;
 126D0 : B5;
 126D1 : B2;
 126D2 : B3;
 126D3 : B6;
 126D4 : BB;
 126D5 : BF;
 126D6 : C1;
 126D7 : BF;
 126D8 : BD;
 126D9 : BC;
 126DA : BA;
 126DB : B5;
 126DC : AE;
 126DD : AD;
 126DE : AF;
 126DF : AF;
 126E0 : AD;
 126E1 : AA;
 126E2 : A8;
 126E3 : A9;
 126E4 : A7;
 126E5 : A0;
 126E6 : 99;
 126E7 : 8B;
 126E8 : 84;
 126E9 : 7F;
 126EA : 81;
 126EB : 85;
 126EC : 8A;
 126ED : 91;
 126EE : 97;
 126EF : 9A;
 126F0 : 9C;
 126F1 : 9E;
 126F2 : 9C;
 126F3 : 99;
 126F4 : 98;
 126F5 : 9B;
 126F6 : 9E;
 126F7 : A1;
 126F8 : 9D;
 126F9 : 9A;
 126FA : 9E;
 126FB : A4;
 126FC : A2;
 126FD : 9B;
 126FE : 99;
 126FF : 74;
 12700 : 78;
 12701 : 6E;
 12702 : 68;
 12703 : 77;
 12704 : 85;
 12705 : 88;
 12706 : 89;
 12707 : 91;
 12708 : 91;
 12709 : 93;
 1270A : 95;
 1270B : 96;
 1270C : 99;
 1270D : 9B;
 1270E : 9E;
 1270F : 9E;
 12710 : 9F;
 12711 : A0;
 12712 : A2;
 12713 : A2;
 12714 : A4;
 12715 : A5;
 12716 : A6;
 12717 : A7;
 12718 : A9;
 12719 : AA;
 1271A : AB;
 1271B : AC;
 1271C : AD;
 1271D : AF;
 1271E : AF;
 1271F : B0;
 12720 : B3;
 12721 : B4;
 12722 : B3;
 12723 : B1;
 12724 : B1;
 12725 : B2;
 12726 : B2;
 12727 : B1;
 12728 : B0;
 12729 : AF;
 1272A : AE;
 1272B : AC;
 1272C : A8;
 1272D : A8;
 1272E : A9;
 1272F : AC;
 12730 : B0;
 12731 : B4;
 12732 : B7;
 12733 : BA;
 12734 : BF;
 12735 : C8;
 12736 : D0;
 12737 : D3;
 12738 : D2;
 12739 : D4;
 1273A : D6;
 1273B : D7;
 1273C : D5;
 1273D : D5;
 1273E : D6;
 1273F : D2;
 12740 : CD;
 12741 : AE;
 12742 : 62;
 12743 : 3C;
 12744 : 3A;
 12745 : 39;
 12746 : 39;
 12747 : 37;
 12748 : 36;
 12749 : 33;
 1274A : 2F;
 1274B : 2B;
 1274C : 2A;
 1274D : 2A;
 1274E : 2C;
 1274F : 2E;
 12750 : 33;
 12751 : 39;
 12752 : 39;
 12753 : 37;
 12754 : 37;
 12755 : 37;
 12756 : 37;
 12757 : 37;
 12758 : 37;
 12759 : 37;
 1275A : 36;
 1275B : 36;
 1275C : 35;
 1275D : 34;
 1275E : 33;
 1275F : 31;
 12760 : 30;
 12761 : 2E;
 12762 : 2E;
 12763 : 2E;
 12764 : 2E;
 12765 : 2E;
 12766 : 2E;
 12767 : 2C;
 12768 : 37;
 12769 : 2E;
 1276A : 2C;
 1276B : 2A;
 1276C : 2C;
 1276D : 36;
 1276E : 2B;
 1276F : 26;
 12770 : 32;
 12771 : 2A;
 12772 : 24;
 12773 : 20;
 12774 : 38;
 12775 : 26;
 12776 : 10;
 12777 : 0C;
 12778 : 0B;
 12779 : 0C;
 1277A : 18;
 1277B : 29;
 1277C : 2C;
 1277D : 19;
 1277E : 18;
 1277F : 1C;
 12780 : 11;
 12781 : 10;
 12782 : 19;
 12783 : 19;
 12784 : 0E;
 12785 : 0A;
 12786 : 0E;
 12787 : 12;
 12788 : 08;
 12789 : 08;
 1278A : 0B;
 1278B : 11;
 1278C : 29;
 1278D : 33;
 1278E : 20;
 1278F : 25;
 12790 : 19;
 12791 : 1D;
 12792 : 26;
 12793 : 22;
 12794 : 28;
 12795 : 24;
 12796 : 23;
 12797 : 1B;
 12798 : 1E;
 12799 : 27;
 1279A : 2C;
 1279B : 16;
 1279C : 25;
 1279D : 31;
 1279E : 19;
 1279F : 1E;
 127A0 : 11;
 127A1 : 0F;
 127A2 : 0E;
 127A3 : 25;
 127A4 : 2C;
 127A5 : 2D;
 127A6 : 37;
 127A7 : 33;
 127A8 : 35;
 127A9 : 3B;
 127AA : 3F;
 127AB : 31;
 127AC : 3A;
 127AD : 41;
 127AE : 3B;
 127AF : 3D;
 127B0 : 3C;
 127B1 : 3B;
 127B2 : 3B;
 127B3 : 39;
 127B4 : 37;
 127B5 : 35;
 127B6 : 32;
 127B7 : 32;
 127B8 : 30;
 127B9 : 2F;
 127BA : 2F;
 127BB : 33;
 127BC : 37;
 127BD : 3B;
 127BE : 3C;
 127BF : 39;
 127C0 : 3A;
 127C1 : 3B;
 127C2 : 3D;
 127C3 : 3E;
 127C4 : 3D;
 127C5 : 3B;
 127C6 : 3A;
 127C7 : 3B;
 127C8 : 39;
 127C9 : 37;
 127CA : 35;
 127CB : 35;
 127CC : 36;
 127CD : 38;
 127CE : 39;
 127CF : 3C;
 127D0 : 3E;
 127D1 : 42;
 127D2 : 42;
 127D3 : 40;
 127D4 : 3F;
 127D5 : 35;
 127D6 : 29;
 127D7 : 1E;
 127D8 : 3D;
 127D9 : 7C;
 127DA : 7D;
 127DB : 8A;
 127DC : A0;
 127DD : A0;
 127DE : 94;
 127DF : 9A;
 127E0 : A3;
 127E1 : AC;
 127E2 : B3;
 127E3 : BA;
 127E4 : BC;
 127E5 : C1;
 127E6 : C7;
 127E7 : CB;
 127E8 : CF;
 127E9 : D2;
 127EA : D4;
 127EB : D5;
 127EC : D7;
 127ED : D7;
 127EE : D6;
 127EF : D9;
 127F0 : D8;
 127F1 : D7;
 127F2 : D6;
 127F3 : D5;
 127F4 : D4;
 127F5 : D3;
 127F6 : D3;
 127F7 : D0;
 127F8 : D1;
 127F9 : D1;
 127FA : CE;
 127FB : CC;
 127FC : C9;
 127FD : C5;
 127FE : C0;
 127FF : BD;
 12800 : BA;
 12801 : BA;
 12802 : BB;
 12803 : BE;
 12804 : C0;
 12805 : C2;
 12806 : C2;
 12807 : C6;
 12808 : CA;
 12809 : CB;
 1280A : CA;
 1280B : C8;
 1280C : C6;
 1280D : C0;
 1280E : BB;
 1280F : B7;
 12810 : B5;
 12811 : B4;
 12812 : B5;
 12813 : B8;
 12814 : BB;
 12815 : BD;
 12816 : BE;
 12817 : BE;
 12818 : BD;
 12819 : BD;
 1281A : BD;
 1281B : B9;
 1281C : B1;
 1281D : AE;
 1281E : AE;
 1281F : AF;
 12820 : AD;
 12821 : AC;
 12822 : AA;
 12823 : A9;
 12824 : A8;
 12825 : A3;
 12826 : 9F;
 12827 : 95;
 12828 : 8C;
 12829 : 84;
 1282A : 81;
 1282B : 81;
 1282C : 83;
 1282D : 89;
 1282E : 8F;
 1282F : 96;
 12830 : 9A;
 12831 : 9D;
 12832 : 9D;
 12833 : 9B;
 12834 : 9A;
 12835 : 9C;
 12836 : 9E;
 12837 : A2;
 12838 : 9E;
 12839 : 9A;
 1283A : 9E;
 1283B : A4;
 1283C : A1;
 1283D : 9A;
 1283E : 98;
 1283F : 6D;
 12840 : 71;
 12841 : 6E;
 12842 : 72;
 12843 : 81;
 12844 : 82;
 12845 : 83;
 12846 : 90;
 12847 : 90;
 12848 : 91;
 12849 : 93;
 1284A : 95;
 1284B : 96;
 1284C : 98;
 1284D : 9B;
 1284E : 9C;
 1284F : 9E;
 12850 : 9F;
 12851 : A0;
 12852 : A1;
 12853 : A2;
 12854 : A3;
 12855 : A4;
 12856 : A5;
 12857 : A5;
 12858 : A7;
 12859 : AA;
 1285A : AB;
 1285B : AD;
 1285C : AE;
 1285D : AE;
 1285E : AF;
 1285F : AE;
 12860 : B0;
 12861 : B3;
 12862 : B2;
 12863 : B1;
 12864 : B1;
 12865 : B1;
 12866 : B1;
 12867 : B1;
 12868 : B0;
 12869 : AF;
 1286A : AE;
 1286B : AB;
 1286C : A8;
 1286D : A8;
 1286E : AA;
 1286F : AD;
 12870 : B0;
 12871 : B5;
 12872 : B8;
 12873 : BC;
 12874 : C2;
 12875 : CA;
 12876 : D0;
 12877 : D6;
 12878 : D6;
 12879 : D7;
 1287A : D9;
 1287B : DA;
 1287C : DA;
 1287D : D7;
 1287E : D5;
 1287F : CF;
 12880 : CC;
 12881 : BB;
 12882 : 78;
 12883 : 43;
 12884 : 3A;
 12885 : 39;
 12886 : 3C;
 12887 : 37;
 12888 : 37;
 12889 : 36;
 1288A : 31;
 1288B : 2D;
 1288C : 2A;
 1288D : 2A;
 1288E : 2A;
 1288F : 2B;
 12890 : 31;
 12891 : 37;
 12892 : 38;
 12893 : 37;
 12894 : 38;
 12895 : 39;
 12896 : 39;
 12897 : 36;
 12898 : 36;
 12899 : 36;
 1289A : 37;
 1289B : 36;
 1289C : 34;
 1289D : 33;
 1289E : 32;
 1289F : 34;
 128A0 : 31;
 128A1 : 2F;
 128A2 : 2E;
 128A3 : 2E;
 128A4 : 2E;
 128A5 : 2F;
 128A6 : 2F;
 128A7 : 2F;
 128A8 : 30;
 128A9 : 31;
 128AA : 2F;
 128AB : 2C;
 128AC : 2F;
 128AD : 32;
 128AE : 29;
 128AF : 2B;
 128B0 : 2F;
 128B1 : 2F;
 128B2 : 2E;
 128B3 : 30;
 128B4 : 31;
 128B5 : 3F;
 128B6 : 3E;
 128B7 : 39;
 128B8 : 3D;
 128B9 : 34;
 128BA : 27;
 128BB : 15;
 128BC : 12;
 128BD : 0F;
 128BE : 1B;
 128BF : 1C;
 128C0 : 23;
 128C1 : 19;
 128C2 : 1B;
 128C3 : 27;
 128C4 : 19;
 128C5 : 0A;
 128C6 : 15;
 128C7 : 15;
 128C8 : 15;
 128C9 : 09;
 128CA : 0C;
 128CB : 1E;
 128CC : 18;
 128CD : 16;
 128CE : 2F;
 128CF : 1D;
 128D0 : 0E;
 128D1 : 10;
 128D2 : 1C;
 128D3 : 1A;
 128D4 : 20;
 128D5 : 20;
 128D6 : 1F;
 128D7 : 1A;
 128D8 : 22;
 128D9 : 1A;
 128DA : 13;
 128DB : 19;
 128DC : 1D;
 128DD : 21;
 128DE : 15;
 128DF : 0E;
 128E0 : 1D;
 128E1 : 27;
 128E2 : 26;
 128E3 : 37;
 128E4 : 3B;
 128E5 : 39;
 128E6 : 2C;
 128E7 : 32;
 128E8 : 32;
 128E9 : 37;
 128EA : 38;
 128EB : 31;
 128EC : 37;
 128ED : 3A;
 128EE : 35;
 128EF : 36;
 128F0 : 36;
 128F1 : 35;
 128F2 : 34;
 128F3 : 32;
 128F4 : 30;
 128F5 : 2F;
 128F6 : 2E;
 128F7 : 2F;
 128F8 : 33;
 128F9 : 37;
 128FA : 3B;
 128FB : 3D;
 128FC : 3B;
 128FD : 38;
 128FE : 34;
 128FF : 37;
 12900 : 37;
 12901 : 37;
 12902 : 39;
 12903 : 3A;
 12904 : 3B;
 12905 : 3A;
 12906 : 3A;
 12907 : 3A;
 12908 : 37;
 12909 : 35;
 1290A : 33;
 1290B : 35;
 1290C : 37;
 1290D : 39;
 1290E : 3A;
 1290F : 3D;
 12910 : 40;
 12911 : 42;
 12912 : 41;
 12913 : 41;
 12914 : 3E;
 12915 : 32;
 12916 : 24;
 12917 : 1D;
 12918 : 4E;
 12919 : 8A;
 1291A : 8C;
 1291B : 8B;
 1291C : 99;
 1291D : A7;
 1291E : A0;
 1291F : 9F;
 12920 : A6;
 12921 : AC;
 12922 : B3;
 12923 : BA;
 12924 : BC;
 12925 : C1;
 12926 : C7;
 12927 : CD;
 12928 : D1;
 12929 : D4;
 1292A : D5;
 1292B : D7;
 1292C : D9;
 1292D : D9;
 1292E : D5;
 1292F : D6;
 12930 : D5;
 12931 : D3;
 12932 : D2;
 12933 : D1;
 12934 : D1;
 12935 : D0;
 12936 : D1;
 12937 : D0;
 12938 : D0;
 12939 : D0;
 1293A : CE;
 1293B : CB;
 1293C : C7;
 1293D : C2;
 1293E : BF;
 1293F : BB;
 12940 : BB;
 12941 : BB;
 12942 : BD;
 12943 : C0;
 12944 : C3;
 12945 : C4;
 12946 : C5;
 12947 : C8;
 12948 : CA;
 12949 : CB;
 1294A : CA;
 1294B : C8;
 1294C : C4;
 1294D : BF;
 1294E : BB;
 1294F : B9;
 12950 : B8;
 12951 : B6;
 12952 : B6;
 12953 : B8;
 12954 : BB;
 12955 : BD;
 12956 : BE;
 12957 : BD;
 12958 : BC;
 12959 : BD;
 1295A : BE;
 1295B : BB;
 1295C : B7;
 1295D : B0;
 1295E : AD;
 1295F : AB;
 12960 : AD;
 12961 : AD;
 12962 : AC;
 12963 : AB;
 12964 : A8;
 12965 : A4;
 12966 : A0;
 12967 : 9E;
 12968 : 95;
 12969 : 8A;
 1296A : 81;
 1296B : 7E;
 1296C : 7E;
 1296D : 83;
 1296E : 89;
 1296F : 92;
 12970 : 97;
 12971 : 9A;
 12972 : 9B;
 12973 : 9A;
 12974 : 9A;
 12975 : 9D;
 12976 : 9E;
 12977 : A1;
 12978 : 9E;
 12979 : 9B;
 1297A : 9E;
 1297B : A4;
 1297C : A1;
 1297D : 9B;
 1297E : 98;
 1297F : 6B;
 12980 : 70;
 12981 : 76;
 12982 : 7E;
 12983 : 83;
 12984 : 82;
 12985 : 85;
 12986 : 90;
 12987 : 8F;
 12988 : 90;
 12989 : 93;
 1298A : 94;
 1298B : 96;
 1298C : 98;
 1298D : 9B;
 1298E : 9C;
 1298F : 9D;
 12990 : 9E;
 12991 : 9F;
 12992 : A0;
 12993 : A1;
 12994 : A2;
 12995 : A3;
 12996 : A4;
 12997 : A5;
 12998 : A6;
 12999 : A8;
 1299A : AA;
 1299B : AC;
 1299C : AD;
 1299D : AD;
 1299E : AE;
 1299F : AE;
 129A0 : AF;
 129A1 : B0;
 129A2 : B1;
 129A3 : B1;
 129A4 : B2;
 129A5 : B1;
 129A6 : B1;
 129A7 : B1;
 129A8 : B1;
 129A9 : AF;
 129AA : AE;
 129AB : AB;
 129AC : A9;
 129AD : AA;
 129AE : AB;
 129AF : B0;
 129B0 : B2;
 129B1 : B6;
 129B2 : B9;
 129B3 : BE;
 129B4 : C5;
 129B5 : CA;
 129B6 : D0;
 129B7 : D7;
 129B8 : D9;
 129B9 : DA;
 129BA : DA;
 129BB : DC;
 129BC : DC;
 129BD : D8;
 129BE : D2;
 129BF : CD;
 129C0 : C9;
 129C1 : C1;
 129C2 : 8F;
 129C3 : 4D;
 129C4 : 3B;
 129C5 : 39;
 129C6 : 3B;
 129C7 : 38;
 129C8 : 37;
 129C9 : 37;
 129CA : 32;
 129CB : 2D;
 129CC : 2A;
 129CD : 29;
 129CE : 29;
 129CF : 2A;
 129D0 : 30;
 129D1 : 33;
 129D2 : 36;
 129D3 : 37;
 129D4 : 38;
 129D5 : 39;
 129D6 : 38;
 129D7 : 37;
 129D8 : 36;
 129D9 : 36;
 129DA : 36;
 129DB : 35;
 129DC : 34;
 129DD : 33;
 129DE : 32;
 129DF : 34;
 129E0 : 33;
 129E1 : 31;
 129E2 : 30;
 129E3 : 30;
 129E4 : 2F;
 129E5 : 2F;
 129E6 : 30;
 129E7 : 2F;
 129E8 : 2D;
 129E9 : 2F;
 129EA : 30;
 129EB : 2E;
 129EC : 2F;
 129ED : 2B;
 129EE : 2E;
 129EF : 2F;
 129F0 : 2A;
 129F1 : 2A;
 129F2 : 29;
 129F3 : 30;
 129F4 : 29;
 129F5 : 35;
 129F6 : 39;
 129F7 : 32;
 129F8 : 3A;
 129F9 : 39;
 129FA : 33;
 129FB : 2B;
 129FC : 2D;
 129FD : 2D;
 129FE : 2A;
 129FF : 34;
 12A00 : 3A;
 12A01 : 35;
 12A02 : 33;
 12A03 : 3B;
 12A04 : 34;
 12A05 : 2A;
 12A06 : 31;
 12A07 : 27;
 12A08 : 32;
 12A09 : 2C;
 12A0A : 1A;
 12A0B : 1F;
 12A0C : 30;
 12A0D : 2D;
 12A0E : 19;
 12A0F : 10;
 12A10 : 12;
 12A11 : 0B;
 12A12 : 0D;
 12A13 : 0F;
 12A14 : 14;
 12A15 : 10;
 12A16 : 14;
 12A17 : 1F;
 12A18 : 27;
 12A19 : 0E;
 12A1A : 16;
 12A1B : 2E;
 12A1C : 26;
 12A1D : 1D;
 12A1E : 27;
 12A1F : 2E;
 12A20 : 35;
 12A21 : 3A;
 12A22 : 37;
 12A23 : 39;
 12A24 : 35;
 12A25 : 34;
 12A26 : 32;
 12A27 : 2E;
 12A28 : 32;
 12A29 : 37;
 12A2A : 34;
 12A2B : 32;
 12A2C : 31;
 12A2D : 32;
 12A2E : 33;
 12A2F : 32;
 12A30 : 32;
 12A31 : 31;
 12A32 : 32;
 12A33 : 32;
 12A34 : 32;
 12A35 : 33;
 12A36 : 34;
 12A37 : 37;
 12A38 : 39;
 12A39 : 3B;
 12A3A : 39;
 12A3B : 37;
 12A3C : 35;
 12A3D : 36;
 12A3E : 37;
 12A3F : 3A;
 12A40 : 39;
 12A41 : 37;
 12A42 : 37;
 12A43 : 38;
 12A44 : 38;
 12A45 : 39;
 12A46 : 39;
 12A47 : 37;
 12A48 : 36;
 12A49 : 36;
 12A4A : 34;
 12A4B : 35;
 12A4C : 37;
 12A4D : 3A;
 12A4E : 3D;
 12A4F : 3E;
 12A50 : 40;
 12A51 : 41;
 12A52 : 40;
 12A53 : 40;
 12A54 : 3D;
 12A55 : 30;
 12A56 : 20;
 12A57 : 26;
 12A58 : 62;
 12A59 : 91;
 12A5A : 9C;
 12A5B : 97;
 12A5C : 96;
 12A5D : A7;
 12A5E : AB;
 12A5F : A6;
 12A60 : A9;
 12A61 : AC;
 12A62 : B2;
 12A63 : BA;
 12A64 : BE;
 12A65 : C4;
 12A66 : CA;
 12A67 : D1;
 12A68 : D2;
 12A69 : D4;
 12A6A : D5;
 12A6B : D8;
 12A6C : DB;
 12A6D : DA;
 12A6E : D5;
 12A6F : D4;
 12A70 : D2;
 12A71 : D0;
 12A72 : CF;
 12A73 : D0;
 12A74 : CF;
 12A75 : D0;
 12A76 : CF;
 12A77 : CE;
 12A78 : CF;
 12A79 : CE;
 12A7A : CD;
 12A7B : CA;
 12A7C : C6;
 12A7D : C1;
 12A7E : BE;
 12A7F : BC;
 12A80 : BC;
 12A81 : BE;
 12A82 : C1;
 12A83 : C3;
 12A84 : C6;
 12A85 : C8;
 12A86 : C9;
 12A87 : C9;
 12A88 : C9;
 12A89 : CA;
 12A8A : C9;
 12A8B : C6;
 12A8C : C2;
 12A8D : C0;
 12A8E : BF;
 12A8F : BB;
 12A90 : B9;
 12A91 : B7;
 12A92 : B6;
 12A93 : B7;
 12A94 : B8;
 12A95 : BA;
 12A96 : BB;
 12A97 : B9;
 12A98 : BB;
 12A99 : BE;
 12A9A : BF;
 12A9B : BE;
 12A9C : BB;
 12A9D : B4;
 12A9E : AF;
 12A9F : AA;
 12AA0 : AC;
 12AA1 : AE;
 12AA2 : AC;
 12AA3 : AB;
 12AA4 : A9;
 12AA5 : A6;
 12AA6 : A3;
 12AA7 : A2;
 12AA8 : 9B;
 12AA9 : 90;
 12AAA : 86;
 12AAB : 7F;
 12AAC : 7E;
 12AAD : 80;
 12AAE : 83;
 12AAF : 8C;
 12AB0 : 91;
 12AB1 : 96;
 12AB2 : 98;
 12AB3 : 9A;
 12AB4 : 9B;
 12AB5 : 9E;
 12AB6 : A0;
 12AB7 : A1;
 12AB8 : 9F;
 12AB9 : 9C;
 12ABA : 9D;
 12ABB : A2;
 12ABC : A0;
 12ABD : 9A;
 12ABE : 98;
 12ABF : 6D;
 12AC0 : 75;
 12AC1 : 80;
 12AC2 : 83;
 12AC3 : 81;
 12AC4 : 85;
 12AC5 : 8B;
 12AC6 : 8A;
 12AC7 : 8D;
 12AC8 : 8F;
 12AC9 : 92;
 12ACA : 94;
 12ACB : 95;
 12ACC : 97;
 12ACD : 98;
 12ACE : 99;
 12ACF : 9C;
 12AD0 : 9D;
 12AD1 : 9F;
 12AD2 : 9F;
 12AD3 : A0;
 12AD4 : A1;
 12AD5 : A2;
 12AD6 : A3;
 12AD7 : A4;
 12AD8 : A6;
 12AD9 : A7;
 12ADA : A9;
 12ADB : AA;
 12ADC : AB;
 12ADD : AC;
 12ADE : AE;
 12ADF : AE;
 12AE0 : B0;
 12AE1 : B0;
 12AE2 : B1;
 12AE3 : B2;
 12AE4 : B3;
 12AE5 : B3;
 12AE6 : B1;
 12AE7 : B0;
 12AE8 : B0;
 12AE9 : AF;
 12AEA : AE;
 12AEB : AC;
 12AEC : A9;
 12AED : AA;
 12AEE : AC;
 12AEF : B0;
 12AF0 : B3;
 12AF1 : B6;
 12AF2 : BA;
 12AF3 : C0;
 12AF4 : C6;
 12AF5 : CB;
 12AF6 : D0;
 12AF7 : D8;
 12AF8 : DC;
 12AF9 : DC;
 12AFA : DB;
 12AFB : DA;
 12AFC : DC;
 12AFD : D7;
 12AFE : D0;
 12AFF : CA;
 12B00 : C5;
 12B01 : C4;
 12B02 : 9C;
 12B03 : 52;
 12B04 : 3C;
 12B05 : 39;
 12B06 : 3B;
 12B07 : 37;
 12B08 : 36;
 12B09 : 36;
 12B0A : 32;
 12B0B : 2E;
 12B0C : 2A;
 12B0D : 2A;
 12B0E : 2A;
 12B0F : 2A;
 12B10 : 2D;
 12B11 : 32;
 12B12 : 35;
 12B13 : 35;
 12B14 : 36;
 12B15 : 38;
 12B16 : 36;
 12B17 : 37;
 12B18 : 36;
 12B19 : 36;
 12B1A : 35;
 12B1B : 35;
 12B1C : 33;
 12B1D : 33;
 12B1E : 32;
 12B1F : 33;
 12B20 : 32;
 12B21 : 32;
 12B22 : 31;
 12B23 : 31;
 12B24 : 30;
 12B25 : 2F;
 12B26 : 2F;
 12B27 : 2D;
 12B28 : 31;
 12B29 : 2E;
 12B2A : 2D;
 12B2B : 2F;
 12B2C : 2F;
 12B2D : 2D;
 12B2E : 30;
 12B2F : 31;
 12B30 : 30;
 12B31 : 31;
 12B32 : 31;
 12B33 : 30;
 12B34 : 2F;
 12B35 : 30;
 12B36 : 32;
 12B37 : 2F;
 12B38 : 2D;
 12B39 : 30;
 12B3A : 2F;
 12B3B : 30;
 12B3C : 29;
 12B3D : 35;
 12B3E : 38;
 12B3F : 35;
 12B40 : 2F;
 12B41 : 34;
 12B42 : 37;
 12B43 : 2F;
 12B44 : 2E;
 12B45 : 30;
 12B46 : 2B;
 12B47 : 34;
 12B48 : 30;
 12B49 : 2C;
 12B4A : 2A;
 12B4B : 2A;
 12B4C : 24;
 12B4D : 22;
 12B4E : 28;
 12B4F : 25;
 12B50 : 2A;
 12B51 : 26;
 12B52 : 23;
 12B53 : 18;
 12B54 : 23;
 12B55 : 28;
 12B56 : 1F;
 12B57 : 26;
 12B58 : 2E;
 12B59 : 24;
 12B5A : 3C;
 12B5B : 31;
 12B5C : 34;
 12B5D : 35;
 12B5E : 3B;
 12B5F : 34;
 12B60 : 35;
 12B61 : 37;
 12B62 : 34;
 12B63 : 34;
 12B64 : 35;
 12B65 : 32;
 12B66 : 34;
 12B67 : 32;
 12B68 : 34;
 12B69 : 34;
 12B6A : 32;
 12B6B : 34;
 12B6C : 31;
 12B6D : 32;
 12B6E : 2F;
 12B6F : 30;
 12B70 : 2E;
 12B71 : 2F;
 12B72 : 2F;
 12B73 : 32;
 12B74 : 35;
 12B75 : 37;
 12B76 : 38;
 12B77 : 38;
 12B78 : 36;
 12B79 : 34;
 12B7A : 36;
 12B7B : 39;
 12B7C : 3A;
 12B7D : 38;
 12B7E : 36;
 12B7F : 36;
 12B80 : 36;
 12B81 : 39;
 12B82 : 3A;
 12B83 : 3A;
 12B84 : 39;
 12B85 : 37;
 12B86 : 35;
 12B87 : 34;
 12B88 : 35;
 12B89 : 35;
 12B8A : 36;
 12B8B : 35;
 12B8C : 37;
 12B8D : 3B;
 12B8E : 3E;
 12B8F : 3E;
 12B90 : 3F;
 12B91 : 41;
 12B92 : 3F;
 12B93 : 3F;
 12B94 : 3D;
 12B95 : 2D;
 12B96 : 1D;
 12B97 : 32;
 12B98 : 71;
 12B99 : 93;
 12B9A : A8;
 12B9B : A6;
 12B9C : 98;
 12B9D : A6;
 12B9E : B2;
 12B9F : A9;
 12BA0 : AA;
 12BA1 : AB;
 12BA2 : B0;
 12BA3 : B9;
 12BA4 : BF;
 12BA5 : C7;
 12BA6 : CE;
 12BA7 : D3;
 12BA8 : D4;
 12BA9 : D4;
 12BAA : D3;
 12BAB : D7;
 12BAC : DB;
 12BAD : DA;
 12BAE : D5;
 12BAF : D2;
 12BB0 : D2;
 12BB1 : CF;
 12BB2 : CE;
 12BB3 : D0;
 12BB4 : D0;
 12BB5 : CF;
 12BB6 : D0;
 12BB7 : CF;
 12BB8 : CF;
 12BB9 : CF;
 12BBA : CE;
 12BBB : C9;
 12BBC : C5;
 12BBD : C1;
 12BBE : BE;
 12BBF : BC;
 12BC0 : BE;
 12BC1 : C2;
 12BC2 : C4;
 12BC3 : C6;
 12BC4 : C8;
 12BC5 : CB;
 12BC6 : CB;
 12BC7 : CA;
 12BC8 : C8;
 12BC9 : C8;
 12BCA : C8;
 12BCB : C6;
 12BCC : C1;
 12BCD : BF;
 12BCE : BF;
 12BCF : B9;
 12BD0 : B8;
 12BD1 : B7;
 12BD2 : B5;
 12BD3 : B4;
 12BD4 : B4;
 12BD5 : B3;
 12BD6 : B3;
 12BD7 : B6;
 12BD8 : BB;
 12BD9 : BF;
 12BDA : C0;
 12BDB : C0;
 12BDC : BE;
 12BDD : B8;
 12BDE : B2;
 12BDF : AE;
 12BE0 : AC;
 12BE1 : AC;
 12BE2 : AA;
 12BE3 : AA;
 12BE4 : AA;
 12BE5 : A8;
 12BE6 : A6;
 12BE7 : A1;
 12BE8 : 9E;
 12BE9 : 95;
 12BEA : 8B;
 12BEB : 83;
 12BEC : 7F;
 12BED : 7F;
 12BEE : 7F;
 12BEF : 87;
 12BF0 : 8B;
 12BF1 : 92;
 12BF2 : 96;
 12BF3 : 99;
 12BF4 : 9C;
 12BF5 : 9F;
 12BF6 : A1;
 12BF7 : A3;
 12BF8 : A1;
 12BF9 : 9D;
 12BFA : 9D;
 12BFB : A1;
 12BFC : 9E;
 12BFD : 98;
 12BFE : 96;
 12BFF : 00;
END;
